1E1X_NW1_A_401
     RDKit          3D

 18 19  0  0  0  0  0  0  0  0999 V2000
    2.1630   28.4110    7.1980 N   0  0  0  0  0  0  0  0  0  0  0  0
    1.2250   28.4780    8.1800 C   0  0  0  0  0  0  0  0  0  0  0  0
    0.9650   27.3090    8.8980 O   0  0  0  0  0  0  0  0  0  0  0  0
    1.9190   26.2340    8.6810 C   0  0  0  0  0  0  0  0  0  0  0  0
    1.6440   25.2190    9.7930 C   0  0  0  0  0  0  0  0  0  0  0  0
    0.1380   25.0120   10.0520 C   0  0  0  0  0  0  0  0  0  0  0  0
   -0.0450   24.0560   11.2680 C   0  0  0  0  0  0  0  0  0  0  0  0
    0.6520   22.6910   10.9410 C   0  0  0  0  0  0  0  0  0  0  0  0
    2.1770   22.9700   10.8330 C   0  0  0  0  0  0  0  0  0  0  0  0
    2.3790   23.8680    9.5680 C   0  0  0  0  0  0  0  0  0  0  0  0
    0.5130   29.7550    8.4910 C   0  0  0  0  0  0  0  0  0  0  0  0
   -0.4380   29.6840    9.5840 N   0  0  0  0  0  0  0  0  0  0  0  0
   -1.0670   30.7150    9.8740 O   0  0  0  0  0  0  0  0  0  0  0  0
    0.8580   30.8220    7.7690 C   0  0  0  0  0  0  0  0  0  0  0  0
    0.3240   31.9930    7.9600 N   0  0  0  0  0  0  0  0  0  0  0  0
    1.8720   30.6210    6.7240 N   0  0  0  0  0  0  0  0  0  0  0  0
    2.4880   29.5500    6.4660 C   0  0  0  0  0  0  0  0  0  0  0  0
    3.4110   29.4190    5.5470 N   0  0  0  0  0  0  0  0  0  0  0  0
  2  1  2  0
 17  1  1  0
  3  2  1  0
 11  2  1  0
  4  3  1  0
  5  4  1  0
  6  5  1  0
 10  5  1  0
  7  6  1  0
  8  7  1  0
  9  8  1  0
 10  9  1  0
 12 11  1  0
 14 11  2  0
 13 12  2  0
 15 14  1  0
 16 14  1  0
 17 16  2  0
 18 17  1  0
A    1
N1
A    2
C6
A    3
O6
A    4
C1
A    5
C3
A    6
C11
A    7
C10
A    8
C9
A    9
C8
A   10
C7
A   11
C5
A   12
N7
A   13
O8
A   14
C4
A   15
N9
A   16
N3
A   17
C2
A   18
N2
M  END
>  <Id>  (1) 
1E1X_NW1_A_401

>  <ChainId>  (1) 
A

>  <AsymId>  (1) 
B

>  <SeqNum>  (1) 
401

>  <Name>  (1) 
6-CYCLOHEXYLMETHYLOXY-5-NITROSO-PYRIMIDINE-2,4-DIAMINE

>  <SystematicName>  (1) 
6-(cyclohexylmethoxy)-5-nitroso-pyrimidine-2,4-diamine

>  <Synonyms>  (1) 


>  <Type>  (1) 
NON-POLYMER

>  <Formula>  (1) 
C11 H17 N5 O2

>  <ObservedFormula>  (1) 
C11 N5 O2

>  <MolecularWeight>  (1) 
251.285

>  <ModifiedDate>  (1) 
2011-06-04

>  <Parent>  (1) 


>  <OneLetterCode>  (1) 


>  <SubcomponentList>  (1) 


>  <AmbiguousFlag>  (1) 
N

>  <InsertionCode>  (1) 


>  <InstanceId>  (1) 
1E1X_NW1_A_401

>  <ChemCompId>  (1) 
NW1

>  <PdbId>  (1) 
1E1X

>  <ResidueNumber>  (1) 
401

>  <InChI>  (1) 
InChI=1S/C11H17N5O2/c12-9-8(16-17)10(15-11(13)14-9)18-6-7-4-2-1-3-5-7/h7H,1-6H2,(H4,12,13,14,15)

>  <InChIKey>  (1) 
DGWXOLHKVGDQLN-UHFFFAOYSA-N

>  <SMILES>  (1) 
C1CCC(CC1)COc2c(c(nc(n2)N)N)N=O

>  <MissingHeavyAtoms>  (1) 
0

>  <Model>  (1) 
1

>  <AltIds>  (1) 


>  <pKI>  (1) 
5.89

>  <ChemblID>  (1) 
CHEMBL303958

>  <standardized_canonical_smiles>  (1) 
Nc1nc(N)c(N=O)c(OCC2CCCCC2)n1

$$$$
1OGU_ST8_C_1297
     RDKit          3D

 27 29  0  0  0  0  0  0  0  0999 V2000
   33.1450   84.7040   45.4250 C   0  0  0  0  0  0  0  0  0  0  0  0
   33.8930   84.1340   41.4310 C   0  0  0  0  0  0  0  0  0  0  0  0
   34.4810   83.6430   40.1390 C   0  0  0  0  0  0  0  0  0  0  0  0
   35.9900   83.4740   40.2410 C   0  0  0  0  0  0  0  0  0  0  0  0
   36.4350   82.8740   38.9210 C   0  0  0  0  0  0  0  0  0  0  0  0
   35.9120   83.6560   37.7060 C   0  0  0  0  0  0  0  0  0  0  0  0
   34.4270   83.9930   37.7990 C   0  0  0  0  0  0  0  0  0  0  0  0
   34.1800   84.7030   39.1060 C   0  0  0  0  0  0  0  0  0  0  0  0
   32.6620   89.3420   44.5540 C   0  0  0  0  0  0  0  0  0  0  0  0
   33.5460   89.2950   43.4710 C   0  0  0  0  0  0  0  0  0  0  0  0
   34.2430   88.1250   43.1860 C   0  0  0  0  0  0  0  0  0  0  0  0
   34.0580   87.0120   44.0010 C   0  0  0  0  0  0  0  0  0  0  0  0
   34.8910   90.7150   41.8050 N   0  0  0  0  0  0  0  0  0  0  0  0
   33.3430   84.4910   44.0990 N   0  0  0  0  0  0  0  0  0  0  0  0
   33.5890   83.2620   43.5810 C   0  0  0  0  0  0  0  0  0  0  0  0
   33.5650   83.0230   42.2410 O   0  0  0  0  0  0  0  0  0  0  0  0
   33.6190   82.1340   44.4990 C   0  0  0  0  0  0  0  0  0  0  0  0
   33.8690   80.8760   43.9930 N   0  0  0  0  0  0  0  0  0  0  0  0
   33.4120   81.4040   46.8300 N   0  0  0  0  0  0  0  0  0  0  0  0
   33.3830   82.4030   45.9200 C   0  0  0  0  0  0  0  0  0  0  0  0
   33.1700   83.6710   46.3050 N   0  0  0  0  0  0  0  0  0  0  0  0
   32.9310   85.9700   45.8810 N   0  0  0  0  0  0  0  0  0  0  0  0
   33.1540   87.0570   45.0900 C   0  0  0  0  0  0  0  0  0  0  0  0
   32.4480   88.2350   45.3450 C   0  0  0  0  0  0  0  0  0  0  0  0
   33.7230   90.5350   42.6070 C   0  0  0  0  0  0  0  0  0  0  0  0
   33.9170   79.9220   44.7480 O   0  0  0  0  0  0  0  0  0  0  0  0
   32.8410   91.3910   42.5900 O   0  0  0  0  0  0  0  0  0  0  0  0
 14  1  2  0
 21  1  1  0
 22  1  1  0
  3  2  1  0
 16  2  1  0
  4  3  1  0
  8  3  1  0
  5  4  1  0
  6  5  1  0
  7  6  1  0
  8  7  1  0
 10  9  2  0
 24  9  1  0
 11 10  1  0
 25 10  1  0
 12 11  2  0
 23 12  1  0
 25 13  1  0
 15 14  1  0
 16 15  1  0
 17 15  2  0
 18 17  1  0
 20 17  1  0
 26 18  2  0
 20 19  1  0
 21 20  2  0
 23 22  1  0
 24 23  2  0
 27 25  2  0
A    1
C2
A    2
C10
A    3
C11
A    4
C12
A    5
C13
A    6
C14
A    7
C15
A    8
C16
A    9
C19
A   10
C20
A   11
C21
A   12
C22
A   13
N25
A   14
N3
A   15
C4
A   16
O6
A   17
C5
A   18
N7
A   19
N9
A   20
C6
A   21
N1
A   22
N2
A   23
C17
A   24
C18
A   25
C23
A   26
O8
A   27
O24
M  END
>  <Id>  (2) 
1OGU_ST8_C_1297

>  <ChainId>  (2) 
C

>  <AsymId>  (2) 
G

>  <SeqNum>  (2) 
1297

>  <Name>  (2) 
4-{[4-AMINO-6-(CYCLOHEXYLMETHOXY)-5-NITROSOPYRIMIDIN-2-YL]AMINO}BENZAMIDE

>  <SystematicName>  (2) 
4-[[4-amino-6-(cyclohexylmethoxy)-5-nitroso-pyrimidin-2-yl]amino]benzamide

>  <Synonyms>  (2) 


>  <Type>  (2) 
NON-POLYMER

>  <Formula>  (2) 
C18 H22 N6 O3

>  <ObservedFormula>  (2) 
C18 N6 O3

>  <MolecularWeight>  (2) 
370.406

>  <ModifiedDate>  (2) 
2011-06-04

>  <Parent>  (2) 


>  <OneLetterCode>  (2) 


>  <SubcomponentList>  (2) 


>  <AmbiguousFlag>  (2) 
N

>  <InsertionCode>  (2) 


>  <InstanceId>  (2) 
1OGU_ST8_C_1297

>  <ChemCompId>  (2) 
ST8

>  <PdbId>  (2) 
1OGU

>  <ResidueNumber>  (2) 
1297

>  <InChI>  (2) 
InChI=1S/C18H22N6O3/c19-15-14(24-26)17(27-10-11-4-2-1-3-5-11)23-18(22-15)21-13-8-6-12(7-9-13)16(20)25/h6-9,11H,1-5,10H2,(H2,20,25)(H3,19,21,22,23)

>  <InChIKey>  (2) 
YBKLJTXDSBEVRV-UHFFFAOYSA-N

>  <SMILES>  (2) 
c1cc(ccc1C(=O)N)Nc2nc(c(c(n2)OCC3CCCCC3)N=O)N

>  <MissingHeavyAtoms>  (2) 
0

>  <Model>  (2) 
1

>  <AltIds>  (2) 


>  <pKI>  (2) 
5.62

>  <ChemblID>  (2) 
CHEMBL101801

>  <standardized_canonical_smiles>  (2) 
NC(=O)c1ccc(Nc2nc(N)c(N=O)c(OCC3CCCCC3)n2)cc1

$$$$
1W0X_OLO_C_1299
     RDKit          3D

 22 24  0  0  0  0  0  0  0  0999 V2000
  107.0840  100.2570   81.1410 N   0  0  0  0  0  0  0  0  0  0  0  0
  108.0000  100.9480   80.3360 C   0  0  0  0  0  0  0  0  0  0  0  0
  107.4580  101.3740   79.1990 N   0  0  0  0  0  0  0  0  0  0  0  0
  106.1350  100.9110   79.2460 C   0  0  0  0  0  0  0  0  0  0  0  0
  105.8950  100.2660   80.4270 C   0  0  0  0  0  0  0  0  0  0  0  0
  105.0440  100.9680   78.3580 C   0  0  0  0  0  0  0  0  0  0  0  0
  103.9470  100.3120   78.6750 N   0  0  0  0  0  0  0  0  0  0  0  0
  103.7070   99.7520   79.8650 C   0  0  0  0  0  0  0  0  0  0  0  0
  104.6740   99.7320   80.8190 N   0  0  0  0  0  0  0  0  0  0  0  0
  107.3030   99.5740   82.4900 C   0  0  0  0  0  0  0  0  0  0  0  0
  102.4930   99.0410   80.0920 N   0  0  0  0  0  0  0  0  0  0  0  0
  101.5880   98.7140   78.9120 C   0  0  0  0  0  0  0  0  0  0  0  0
  100.8840   97.3220   78.7590 C   0  0  0  0  0  0  0  0  0  0  0  0
   99.4610   97.6010   78.7240 O   0  0  0  0  0  0  0  0  0  0  0  0
  105.0290  101.6760   77.2000 N   0  0  0  0  0  0  0  0  0  0  0  0
  104.0080  101.3500   76.1800 C   0  0  0  0  0  0  0  0  0  0  0  0
  101.6240  101.7240   76.5510 C   0  0  0  0  0  0  0  0  0  0  0  0
  100.4600  102.5470   76.5070 C   0  0  0  0  0  0  0  0  0  0  0  0
  100.6270  103.8740   76.1430 C   0  0  0  0  0  0  0  0  0  0  0  0
  101.9520  104.3680   75.8390 C   0  0  0  0  0  0  0  0  0  0  0  0
  103.0670  103.5270   75.8960 C   0  0  0  0  0  0  0  0  0  0  0  0
  102.8890  102.2430   76.2340 C   0  0  0  0  0  0  0  0  0  0  0  0
  2  1  1  0
  5  1  1  0
 10  1  1  0
  3  2  2  0
  4  3  1  0
  5  4  2  0
  6  4  1  0
  9  5  1  0
  7  6  2  0
 15  6  1  0
  8  7  1  0
  9  8  2  0
 11  8  1  0
 12 11  1  0
 13 12  1  0
 14 13  1  0
 16 15  1  0
 22 16  1  0
 18 17  2  0
 22 17  1  0
 19 18  1  0
 20 19  2  0
 21 20  1  0
 22 21  2  0
A    1
N
A    2
C
A    3
N1
A    4
C3A
A    5
C7A
A    6
C1
A    7
N2
A    8
C2
A    9
N3
A   10
C3
A   11
N4
A   12
C4
A   13
C5
A   14
O
A   15
N5
A   16
C6
A   17
C7
A   18
C8
A   19
C9
A   20
C10
A   21
C11
A   22
C12
M  END
>  <Id>  (3) 
1W0X_OLO_C_1299

>  <ChainId>  (3) 
C

>  <AsymId>  (3) 
B

>  <SeqNum>  (3) 
1299

>  <Name>  (3) 
OLOMOUCINE

>  <SystematicName>  (3) 
2-[[9-methyl-6-(phenylmethylamino)purin-2-yl]amino]ethanol

>  <Synonyms>  (3) 


>  <Type>  (3) 
NON-POLYMER

>  <Formula>  (3) 
C15 H18 N6 O

>  <ObservedFormula>  (3) 
C15 N6 O

>  <MolecularWeight>  (3) 
298.343

>  <ModifiedDate>  (3) 
2011-06-04

>  <Parent>  (3) 


>  <OneLetterCode>  (3) 


>  <SubcomponentList>  (3) 


>  <AmbiguousFlag>  (3) 
N

>  <InsertionCode>  (3) 


>  <InstanceId>  (3) 
1W0X_OLO_C_1299

>  <ChemCompId>  (3) 
OLO

>  <PdbId>  (3) 
1W0X

>  <ResidueNumber>  (3) 
1299

>  <InChI>  (3) 
InChI=1S/C15H18N6O/c1-21-10-18-12-13(17-9-11-5-3-2-4-6-11)19-15(16-7-8-22)20-14(12)21/h2-6,10,22H,7-9H2,1H3,(H2,16,17,19,20)

>  <InChIKey>  (3) 
GTVPOLSIJWJJNY-UHFFFAOYSA-N

>  <SMILES>  (3) 
Cn1cnc2c1nc(nc2NCc3ccccc3)NCCO

>  <MissingHeavyAtoms>  (3) 
0

>  <Model>  (3) 
1

>  <AltIds>  (3) 


>  <pKI>  (3) 
5.4

>  <ChemblID>  (3) 
CHEMBL280074

>  <standardized_canonical_smiles>  (3) 
Cn1cnc2c(NCc3ccccc3)nc(NCCO)nc21

$$$$
4FKL_CK2_A_300
     RDKit          3D

 14 15  0  0  0  0  0  0  0  0999 V2000
   -0.8000   11.7930   25.9370 C   0  0  0  0  0  0  0  0  0  0  0  0
   -0.4380   10.3570   26.2570 C   0  0  0  0  0  0  0  0  0  0  0  0
    0.1060    9.7590   27.7650 S   0  0  0  0  0  0  0  0  0  0  0  0
   -0.5330    9.4040   25.3530 N   0  0  0  0  0  0  0  0  0  0  0  0
   -0.2010    8.1610   25.8100 C   0  0  0  0  0  0  0  0  0  0  0  0
   -0.2560    7.0990   24.8170 C   0  0  0  0  0  0  0  0  0  0  0  0
    0.1800    8.1280   27.1640 C   0  0  0  0  0  0  0  0  0  0  0  0
    0.5910    6.9890   27.9190 C   0  0  0  0  0  0  0  0  0  0  0  0
    0.0330    5.7660   27.7290 N   0  0  0  0  0  0  0  0  0  0  0  0
    1.5970    7.1150   28.8930 C   0  0  0  0  0  0  0  0  0  0  0  0
    1.9930    6.0370   29.6760 C   0  0  0  0  0  0  0  0  0  0  0  0
    1.4460    4.8400   29.4470 N   0  0  0  0  0  0  0  0  0  0  0  0
    0.4430    4.7290   28.5250 C   0  0  0  0  0  0  0  0  0  0  0  0
   -0.1230    3.5890   28.2990 N   0  0  0  0  0  0  0  0  0  0  0  0
  2  1  1  0
  3  2  1  0
  4  2  2  0
  7  3  1  0
  5  4  1  0
  6  5  1  0
  7  5  2  0
  8  7  1  0
  9  8  2  0
 10  8  1  0
 13  9  1  0
 11 10  2  0
 12 11  1  0
 13 12  2  0
 14 13  1  0
A    1
C7A
A    2
C3A
A    3
S4A
A    4
N2A
A    5
C1A
A    6
C6A
A    7
C5A
A    8
C4
A    9
N3
A   10
C5
A   11
C6
A   12
N1
A   13
C2
A   14
N7
M  END
>  <Id>  (4) 
4FKL_CK2_A_300

>  <ChainId>  (4) 
A

>  <AsymId>  (4) 
B

>  <SeqNum>  (4) 
300

>  <Name>  (4) 
4-(2,4-DIMETHYL-1,3-THIAZOL-5-YL)PYRIMIDIN-2-AMINE

>  <SystematicName>  (4) 
4-(2,4-dimethyl-1,3-thiazol-5-yl)pyrimidin-2-amine

>  <Synonyms>  (4) 
4-(2,4-DIMETHYL-THIAZOL-5-YL)-PYRIMIDIN-2-YLAMINE

>  <Type>  (4) 
NON-POLYMER

>  <Formula>  (4) 
C9 H10 N4 S

>  <ObservedFormula>  (4) 
C9 S N4

>  <MolecularWeight>  (4) 
206.267

>  <ModifiedDate>  (4) 
2011-06-04

>  <Parent>  (4) 


>  <OneLetterCode>  (4) 


>  <SubcomponentList>  (4) 


>  <AmbiguousFlag>  (4) 
N

>  <InsertionCode>  (4) 


>  <InstanceId>  (4) 
4FKL_CK2_A_300

>  <ChemCompId>  (4) 
CK2

>  <PdbId>  (4) 
4FKL

>  <ResidueNumber>  (4) 
300

>  <InChI>  (4) 
InChI=1S/C9H10N4S/c1-5-8(14-6(2)12-5)7-3-4-11-9(10)13-7/h3-4H,1-2H3,(H2,10,11,13)

>  <InChIKey>  (4) 
CTFDMGIBHFQWKB-UHFFFAOYSA-N

>  <SMILES>  (4) 
Cc1c(sc(n1)C)c2ccnc(n2)N

>  <MissingHeavyAtoms>  (4) 
0

>  <Model>  (4) 
1

>  <AltIds>  (4) 


>  <pKI>  (4) 
5.19

>  <ChemblID>  (4) 
CHEMBL47302

>  <standardized_canonical_smiles>  (4) 
Cc1nc(C)c(-c2ccnc(N)n2)s1

$$$$
1PXJ_CK2_A_500
     RDKit          3D

 14 15  0  0  0  0  0  0  0  0999 V2000
   14.4000   43.3310   29.0850 C   0  0  0  0  0  0  0  0  0  0  0  0
   13.9480   43.7450   27.6850 C   0  0  0  0  0  0  0  0  0  0  0  0
   13.4540   45.2330   27.1460 S   0  0  0  0  0  0  0  0  0  0  0  0
   13.8950   42.9200   26.7630 N   0  0  0  0  0  0  0  0  0  0  0  0
   13.4850   43.3560   25.5740 C   0  0  0  0  0  0  0  0  0  0  0  0
   13.4950   42.3130   24.6240 C   0  0  0  0  0  0  0  0  0  0  0  0
   13.2010   44.6390   25.5290 C   0  0  0  0  0  0  0  0  0  0  0  0
   12.7490   45.4560   24.4000 C   0  0  0  0  0  0  0  0  0  0  0  0
   13.2620   45.2730   23.1870 N   0  0  0  0  0  0  0  0  0  0  0  0
   11.8000   46.4490   24.6390 C   0  0  0  0  0  0  0  0  0  0  0  0
   11.4150   47.1810   23.5420 C   0  0  0  0  0  0  0  0  0  0  0  0
   11.9380   46.9580   22.3100 N   0  0  0  0  0  0  0  0  0  0  0  0
   12.8270   45.9970   22.2500 C   0  0  0  0  0  0  0  0  0  0  0  0
   13.3040   45.7030   21.0790 N   0  0  0  0  0  0  0  0  0  0  0  0
  2  1  1  0
  3  2  1  0
  4  2  2  0
  7  3  1  0
  5  4  1  0
  6  5  1  0
  7  5  2  0
  8  7  1  0
  9  8  2  0
 10  8  1  0
 13  9  1  0
 11 10  2  0
 12 11  1  0
 13 12  2  0
 14 13  1  0
A    1
C7A
A    2
C3A
A    3
S4A
A    4
N2A
A    5
C1A
A    6
C6A
A    7
C5A
A    8
C4
A    9
N3
A   10
C5
A   11
C6
A   12
N1
A   13
C2
A   14
N7
M  END
>  <Id>  (5) 
1PXJ_CK2_A_500

>  <ChainId>  (5) 
A

>  <AsymId>  (5) 
B

>  <SeqNum>  (5) 
500

>  <Name>  (5) 
4-(2,4-DIMETHYL-1,3-THIAZOL-5-YL)PYRIMIDIN-2-AMINE

>  <SystematicName>  (5) 
4-(2,4-dimethyl-1,3-thiazol-5-yl)pyrimidin-2-amine

>  <Synonyms>  (5) 
4-(2,4-DIMETHYL-THIAZOL-5-YL)-PYRIMIDIN-2-YLAMINE

>  <Type>  (5) 
NON-POLYMER

>  <Formula>  (5) 
C9 H10 N4 S

>  <ObservedFormula>  (5) 
C9 S N4

>  <MolecularWeight>  (5) 
206.267

>  <ModifiedDate>  (5) 
2011-06-04

>  <Parent>  (5) 


>  <OneLetterCode>  (5) 


>  <SubcomponentList>  (5) 


>  <AmbiguousFlag>  (5) 
N

>  <InsertionCode>  (5) 


>  <InstanceId>  (5) 
1PXJ_CK2_A_500

>  <ChemCompId>  (5) 
CK2

>  <PdbId>  (5) 
1PXJ

>  <ResidueNumber>  (5) 
500

>  <InChI>  (5) 
InChI=1S/C9H10N4S/c1-5-8(14-6(2)12-5)7-3-4-11-9(10)13-7/h3-4H,1-2H3,(H2,10,11,13)

>  <InChIKey>  (5) 
CTFDMGIBHFQWKB-UHFFFAOYSA-N

>  <SMILES>  (5) 
Cc1c(sc(n1)C)c2ccnc(n2)N

>  <MissingHeavyAtoms>  (5) 
0

>  <Model>  (5) 
1

>  <AltIds>  (5) 


>  <pKI>  (5) 
5.19

>  <ChemblID>  (5) 
CHEMBL47302

>  <standardized_canonical_smiles>  (5) 
Cc1nc(C)c(-c2ccnc(N)n2)s1

$$$$
2C5O_CK2_C_1298
     RDKit          3D

 14 15  0  0  0  0  0  0  0  0999 V2000
   42.8900   53.7150   24.1210 C   0  0  0  0  0  0  0  0  0  0  0  0
   43.6070   52.4310   23.8260 C   0  0  0  0  0  0  0  0  0  0  0  0
   43.2290   51.5330   22.4260 S   0  0  0  0  0  0  0  0  0  0  0  0
   44.5550   51.9740   24.6610 N   0  0  0  0  0  0  0  0  0  0  0  0
   45.0620   50.8120   24.2200 C   0  0  0  0  0  0  0  0  0  0  0  0
   46.1280   50.2210   25.0950 C   0  0  0  0  0  0  0  0  0  0  0  0
   44.4160   50.3850   22.9470 C   0  0  0  0  0  0  0  0  0  0  0  0
   44.7250   49.2290   22.2390 C   0  0  0  0  0  0  0  0  0  0  0  0
   45.6580   48.3790   22.6830 N   0  0  0  0  0  0  0  0  0  0  0  0
   44.0570   48.9430   21.0530 C   0  0  0  0  0  0  0  0  0  0  0  0
   44.3850   47.7820   20.3640 C   0  0  0  0  0  0  0  0  0  0  0  0
   45.3300   46.9740   20.8560 N   0  0  0  0  0  0  0  0  0  0  0  0
   45.9580   47.2680   22.0000 C   0  0  0  0  0  0  0  0  0  0  0  0
   46.9460   46.3980   22.4910 N   0  0  0  0  0  0  0  0  0  0  0  0
  2  1  1  0
  3  2  1  0
  4  2  2  0
  7  3  1  0
  5  4  1  0
  6  5  1  0
  7  5  2  0
  8  7  1  0
  9  8  2  0
 10  8  1  0
 13  9  1  0
 11 10  2  0
 12 11  1  0
 13 12  2  0
 14 13  1  0
A    1
C7A
A    2
C3A
A    3
S4A
A    4
N2A
A    5
C1A
A    6
C6A
A    7
C5A
A    8
C4
A    9
N3
A   10
C5
A   11
C6
A   12
N1
A   13
C2
A   14
N7
M  END
>  <Id>  (6) 
2C5O_CK2_C_1298

>  <ChainId>  (6) 
C

>  <AsymId>  (6) 
F

>  <SeqNum>  (6) 
1298

>  <Name>  (6) 
4-(2,4-DIMETHYL-1,3-THIAZOL-5-YL)PYRIMIDIN-2-AMINE

>  <SystematicName>  (6) 
4-(2,4-dimethyl-1,3-thiazol-5-yl)pyrimidin-2-amine

>  <Synonyms>  (6) 
4-(2,4-DIMETHYL-THIAZOL-5-YL)-PYRIMIDIN-2-YLAMINE

>  <Type>  (6) 
NON-POLYMER

>  <Formula>  (6) 
C9 H10 N4 S

>  <ObservedFormula>  (6) 
C9 S N4

>  <MolecularWeight>  (6) 
206.267

>  <ModifiedDate>  (6) 
2011-06-04

>  <Parent>  (6) 


>  <OneLetterCode>  (6) 


>  <SubcomponentList>  (6) 


>  <AmbiguousFlag>  (6) 
N

>  <InsertionCode>  (6) 


>  <InstanceId>  (6) 
2C5O_CK2_C_1298

>  <ChemCompId>  (6) 
CK2

>  <PdbId>  (6) 
2C5O

>  <ResidueNumber>  (6) 
1298

>  <InChI>  (6) 
InChI=1S/C9H10N4S/c1-5-8(14-6(2)12-5)7-3-4-11-9(10)13-7/h3-4H,1-2H3,(H2,10,11,13)

>  <InChIKey>  (6) 
CTFDMGIBHFQWKB-UHFFFAOYSA-N

>  <SMILES>  (6) 
Cc1c(sc(n1)C)c2ccnc(n2)N

>  <MissingHeavyAtoms>  (6) 
0

>  <Model>  (6) 
1

>  <AltIds>  (6) 


>  <pKI>  (6) 
5.19

>  <ChemblID>  (6) 
CHEMBL47302

>  <standardized_canonical_smiles>  (6) 
Cc1nc(C)c(-c2ccnc(N)n2)s1

$$$$
4FKO_20K_A_301
     RDKit          3D

 24 26  0  0  0  0  0  0  0  0999 V2000
   -0.3820   -7.3210   25.2360 S   0  0  0  0  0  0  0  0  0  0  0  0
   -6.2250   -8.6680   30.8430 Cl  0  0  0  0  0  0  0  0  0  0  0  0
    0.9480   -8.9270   23.3440 C   0  0  0  0  0  0  0  0  0  0  0  0
    1.8190   -6.7250   24.0540 N   0  0  0  0  0  0  0  0  0  0  0  0
    0.9060   -7.6520   24.1180 C   0  0  0  0  0  0  0  0  0  0  0  0
   -1.9870   -3.4550   28.1990 N   0  0  0  0  0  0  0  0  0  0  0  0
    1.5680   -5.6700   24.9160 C   0  0  0  0  0  0  0  0  0  0  0  0
   -3.2340   -5.3190   28.5810 N   0  0  0  0  0  0  0  0  0  0  0  0
    2.5790   -4.5800   25.0410 C   0  0  0  0  0  0  0  0  0  0  0  0
   -5.6590  -10.4500   28.4490 N   0  0  0  0  0  0  0  0  0  0  0  0
    0.3790   -5.8070   25.6380 C   0  0  0  0  0  0  0  0  0  0  0  0
   -1.4070   -5.5300   27.1530 N   0  0  0  0  0  0  0  0  0  0  0  0
   -0.3820   -4.9200   26.5380 C   0  0  0  0  0  0  0  0  0  0  0  0
   -0.0960   -3.5730   26.7140 C   0  0  0  0  0  0  0  0  0  0  0  0
   -0.9560   -2.8900   27.5540 C   0  0  0  0  0  0  0  0  0  0  0  0
   -2.1770   -4.7560   27.9570 C   0  0  0  0  0  0  0  0  0  0  0  0
   -3.8230   -6.5930   28.4810 C   0  0  0  0  0  0  0  0  0  0  0  0
   -3.5300   -7.5090   27.4770 C   0  0  0  0  0  0  0  0  0  0  0  0
   -4.1040   -8.7680   27.4830 C   0  0  0  0  0  0  0  0  0  0  0  0
   -4.9720   -9.1330   28.5000 C   0  0  0  0  0  0  0  0  0  0  0  0
   -4.9410  -11.4690   27.6310 C   0  0  0  0  0  0  0  0  0  0  0  0
   -7.0860  -10.3300   28.0320 C   0  0  0  0  0  0  0  0  0  0  0  0
   -5.2510   -8.2190   29.4900 C   0  0  0  0  0  0  0  0  0  0  0  0
   -4.7160   -6.9500   29.4820 C   0  0  0  0  0  0  0  0  0  0  0  0
  5  1  1  0
 11  1  1  0
 23  2  1  0
  5  3  1  0
  5  4  2  0
  7  4  1  0
 15  6  2  0
 16  6  1  0
  9  7  1  0
 11  7  2  0
 16  8  1  0
 17  8  1  0
 20 10  1  0
 21 10  1  0
 22 10  1  0
 13 11  1  0
 13 12  1  0
 16 12  2  0
 14 13  2  0
 15 14  1  0
 18 17  2  0
 24 17  1  0
 19 18  1  0
 20 19  2  0
 23 20  1  0
 24 23  2  0
A    1
S
A    2
CL
A    3
C1
A    4
N1
A    5
C2
A    6
N2
A    7
C3
A    8
N3
A    9
C4
A   10
N4
A   11
C5
A   12
N5
A   13
C6
A   14
C7
A   15
C8
A   16
C9
A   17
C10
A   18
C11
A   19
C12
A   20
C13
A   21
C14
A   22
C15
A   23
C16
A   24
C17
M  END
>  <Id>  (7) 
4FKO_20K_A_301

>  <ChainId>  (7) 
A

>  <AsymId>  (7) 
B

>  <SeqNum>  (7) 
301

>  <Name>  (7) 
2-chloro-N~4~-[4-(2,4-dimethyl-1,3-thiazol-5-yl)pyrimidin-2-yl]-N~1~,N~1~-dimethylbenzene-1,4-diamine

>  <SystematicName>  (7) 
2-chloranyl-N4-[4-(2,4-dimethyl-1,3-thiazol-5-yl)pyrimidin-2-yl]-N1,N1-dimethyl-benzene-1,4-diamine

>  <Synonyms>  (7) 


>  <Type>  (7) 
NON-POLYMER

>  <Formula>  (7) 
C17 H18 Cl N5 S

>  <ObservedFormula>  (7) 
S C17 Cl N5

>  <MolecularWeight>  (7) 
359.876

>  <ModifiedDate>  (7) 
2013-05-03

>  <Parent>  (7) 


>  <OneLetterCode>  (7) 


>  <SubcomponentList>  (7) 


>  <AmbiguousFlag>  (7) 
N

>  <InsertionCode>  (7) 


>  <InstanceId>  (7) 
4FKO_20K_A_301

>  <ChemCompId>  (7) 
20K

>  <PdbId>  (7) 
4FKO

>  <ResidueNumber>  (7) 
301

>  <InChI>  (7) 
InChI=1S/C17H18ClN5S/c1-10-16(24-11(2)20-10)14-7-8-19-17(22-14)21-12-5-6-15(23(3)4)13(18)9-12/h5-9H,1-4H3,(H,19,21,22)

>  <InChIKey>  (7) 
FUDBRAFSKPGJJE-UHFFFAOYSA-N

>  <SMILES>  (7) 
Cc1c(sc(n1)C)c2ccnc(n2)Nc3ccc(c(c3)Cl)N(C)C

>  <MissingHeavyAtoms>  (7) 
0

>  <Model>  (7) 
1

>  <AltIds>  (7) 


>  <pKI>  (7) 
7.0

>  <ChemblID>  (7) 
CHEMBL433068

>  <standardized_canonical_smiles>  (7) 
Cc1nc(C)c(-c2ccnc(Nc3ccc(N(C)C)c(Cl)c3)n2)s1

$$$$
1PXM_CK5_A_500
     RDKit          3D

 21 23  0  0  0  0  0  0  0  0999 V2000
   17.3240   44.2610    8.6060 O   0  0  0  0  0  0  0  0  0  0  0  0
   17.6000   45.2300    9.5260 C   0  0  0  0  0  0  0  0  0  0  0  0
   16.8520   45.3760   10.7270 C   0  0  0  0  0  0  0  0  0  0  0  0
   17.1670   46.4200   11.6750 C   0  0  0  0  0  0  0  0  0  0  0  0
   18.2390   47.2920   11.3720 C   0  0  0  0  0  0  0  0  0  0  0  0
   18.9920   47.1490   10.1780 C   0  0  0  0  0  0  0  0  0  0  0  0
   18.6650   46.1180    9.2610 C   0  0  0  0  0  0  0  0  0  0  0  0
   16.4860   46.6860   12.9470 N   0  0  0  0  0  0  0  0  0  0  0  0
   15.3970   46.0000   13.5540 C   0  0  0  0  0  0  0  0  0  0  0  0
   15.2400   46.2990   14.8440 N   0  0  0  0  0  0  0  0  0  0  0  0
   14.2560   45.7080   15.5500 C   0  0  0  0  0  0  0  0  0  0  0  0
   14.6440   45.1440   12.9070 N   0  0  0  0  0  0  0  0  0  0  0  0
   13.6330   44.5040   13.5490 C   0  0  0  0  0  0  0  0  0  0  0  0
   13.3940   44.7700   14.9350 C   0  0  0  0  0  0  0  0  0  0  0  0
   12.8660   43.5650   12.7860 C   0  0  0  0  0  0  0  0  0  0  0  0
   11.6170   42.9260   12.8830 C   0  0  0  0  0  0  0  0  0  0  0  0
   10.5430   43.0470   13.9610 C   0  0  0  0  0  0  0  0  0  0  0  0
   13.6190   43.0010   11.3280 S   0  0  0  0  0  0  0  0  0  0  0  0
   12.3360   42.0210   10.9520 C   0  0  0  0  0  0  0  0  0  0  0  0
   11.3470   42.0570   11.8280 N   0  0  0  0  0  0  0  0  0  0  0  0
   12.3820   41.1970    9.7010 C   0  0  0  0  0  0  0  0  0  0  0  0
  2  1  1  0
  3  2  2  0
  7  2  1  0
  4  3  1  0
  5  4  2  0
  8  4  1  0
  6  5  1  0
  7  6  2  0
  9  8  1  0
 10  9  2  0
 12  9  1  0
 11 10  1  0
 14 11  2  0
 13 12  2  0
 14 13  1  0
 15 13  1  0
 16 15  2  0
 18 15  1  0
 17 16  1  0
 20 16  1  0
 19 18  1  0
 20 19  2  0
 21 19  1  0
A    1
O7B
A    2
C3B
A    3
C2B
A    4
C1B
A    5
C6B
A    6
C5B
A    7
C4B
A    8
N7
A    9
C2
A   10
N1
A   11
C6
A   12
N3
A   13
C4
A   14
C5
A   15
C5A
A   16
C1A
A   17
C6A
A   18
S4A
A   19
C3A
A   20
N2A
A   21
C7A
M  END
>  <Id>  (8) 
1PXM_CK5_A_500

>  <ChainId>  (8) 
A

>  <AsymId>  (8) 
B

>  <SeqNum>  (8) 
500

>  <Name>  (8) 
3-[4-(2,4-DIMETHYL-THIAZOL-5-YL)-PYRIMIDIN-2-YLAMINO]-PHENOL

>  <SystematicName>  (8) 
3-[[4-(2,4-dimethyl-1,3-thiazol-5-yl)pyrimidin-2-yl]amino]phenol

>  <Synonyms>  (8) 


>  <Type>  (8) 
NON-POLYMER

>  <Formula>  (8) 
C15 H14 N4 O S

>  <ObservedFormula>  (8) 
C15 S N4 O

>  <MolecularWeight>  (8) 
298.363

>  <ModifiedDate>  (8) 
2011-06-04

>  <Parent>  (8) 


>  <OneLetterCode>  (8) 


>  <SubcomponentList>  (8) 


>  <AmbiguousFlag>  (8) 
N

>  <InsertionCode>  (8) 


>  <InstanceId>  (8) 
1PXM_CK5_A_500

>  <ChemCompId>  (8) 
CK5

>  <PdbId>  (8) 
1PXM

>  <ResidueNumber>  (8) 
500

>  <InChI>  (8) 
InChI=1S/C15H14N4OS/c1-9-14(21-10(2)17-9)13-6-7-16-15(19-13)18-11-4-3-5-12(20)8-11/h3-8,20H,1-2H3,(H,16,18,19)

>  <InChIKey>  (8) 
JJDRRZFRTKZLFT-UHFFFAOYSA-N

>  <SMILES>  (8) 
Cc1c(sc(n1)C)c2ccnc(n2)Nc3cccc(c3)O

>  <MissingHeavyAtoms>  (8) 
0

>  <Model>  (8) 
1

>  <AltIds>  (8) 


>  <pKI>  (8) 
7.22

>  <ChemblID>  (8) 
CHEMBL47527

>  <standardized_canonical_smiles>  (8) 
Cc1nc(C)c(-c2ccnc(Nc3cccc(O)c3)n2)s1

$$$$
2C5N_CK8_C_1298
     RDKit          3D

 23 25  0  0  0  0  0  0  0  0999 V2000
   45.2560   47.2000   20.1590 C   0  0  0  0  0  0  0  0  0  0  0  0
   46.0390   46.3460   20.7990 N   0  0  0  0  0  0  0  0  0  0  0  0
   46.2470   46.4650   22.1170 C   0  0  0  0  0  0  0  0  0  0  0  0
   45.6530   47.4260   22.8110 N   0  0  0  0  0  0  0  0  0  0  0  0
   44.8550   48.3170   22.2200 C   0  0  0  0  0  0  0  0  0  0  0  0
   44.6080   48.2010   20.8700 C   0  0  0  0  0  0  0  0  0  0  0  0
   44.2420   49.2810   23.0030 C   0  0  0  0  0  0  0  0  0  0  0  0
   44.5270   49.3590   24.4450 C   0  0  0  0  0  0  0  0  0  0  0  0
   43.9070   50.3670   25.0570 N   0  0  0  0  0  0  0  0  0  0  0  0
   43.1780   51.0240   24.1440 C   0  0  0  0  0  0  0  0  0  0  0  0
   43.2170   50.5190   22.5210 S   0  0  0  0  0  0  0  0  0  0  0  0
   45.3370   48.5350   25.3340 C   0  0  0  0  0  0  0  0  0  0  0  0
   42.3800   52.2060   24.6350 C   0  0  0  0  0  0  0  0  0  0  0  0
   47.0990   45.5430   22.5790 N   0  0  0  0  0  0  0  0  0  0  0  0
   47.6380   45.3090   23.7920 C   0  0  0  0  0  0  0  0  0  0  0  0
   48.5020   44.2210   23.8840 C   0  0  0  0  0  0  0  0  0  0  0  0
   49.0670   43.8830   25.1090 C   0  0  0  0  0  0  0  0  0  0  0  0
   48.7770   44.6450   26.2380 C   0  0  0  0  0  0  0  0  0  0  0  0
   47.9130   45.7260   26.1350 C   0  0  0  0  0  0  0  0  0  0  0  0
   47.3420   46.0630   24.9130 C   0  0  0  0  0  0  0  0  0  0  0  0
   49.3060   44.3550   27.4510 N   0  0  0  0  0  0  0  0  0  0  0  0
   48.9400   45.1750   28.5940 C   0  0  0  0  0  0  0  0  0  0  0  0
   50.2260   43.2420   27.6220 C   0  0  0  0  0  0  0  0  0  0  0  0
  2  1  2  0
  6  1  1  0
  3  2  1  0
  4  3  2  0
 14  3  1  0
  5  4  1  0
  6  5  2  0
  7  5  1  0
  8  7  2  0
 11  7  1  0
  9  8  1  0
 12  8  1  0
 10  9  2  0
 11 10  1  0
 13 10  1  0
 15 14  1  0
 16 15  2  0
 20 15  1  0
 17 16  1  0
 18 17  2  0
 19 18  1  0
 21 18  1  0
 20 19  2  0
 22 21  1  0
 23 21  1  0
A    1
C6
A    2
N1
A    3
C2
A    4
N3
A    5
C4
A    6
C5
A    7
C5A
A    8
C1A
A    9
N2A
A   10
C3A
A   11
S4A
A   12
C6A
A   13
C7A
A   14
N7
A   15
C1B
A   16
C2B
A   17
C3B
A   18
C4B
A   19
C5B
A   20
C6B
A   21
N7B
A   22
C8B
A   23
C9B
M  END
>  <Id>  (9) 
2C5N_CK8_C_1298

>  <ChainId>  (9) 
C

>  <AsymId>  (9) 
F

>  <SeqNum>  (9) 
1298

>  <Name>  (9) 
N-[4-(2,4-DIMETHYL-THIAZOL-5-YL)-PYRIMIDIN-2-YL]-N',N'-DIMETHYL-BENZENE-1,4-DIAMINE

>  <SystematicName>  (9) 
N-[4-(2,4-dimethyl-1,3-thiazol-5-yl)pyrimidin-2-yl]-N',N'-dimethyl-benzene-1,4-diamine

>  <Synonyms>  (9) 


>  <Type>  (9) 
NON-POLYMER

>  <Formula>  (9) 
C17 H19 N5 S

>  <ObservedFormula>  (9) 
C17 S N5

>  <MolecularWeight>  (9) 
325.431

>  <ModifiedDate>  (9) 
2011-06-04

>  <Parent>  (9) 


>  <OneLetterCode>  (9) 


>  <SubcomponentList>  (9) 


>  <AmbiguousFlag>  (9) 
N

>  <InsertionCode>  (9) 


>  <InstanceId>  (9) 
2C5N_CK8_C_1298

>  <ChemCompId>  (9) 
CK8

>  <PdbId>  (9) 
2C5N

>  <ResidueNumber>  (9) 
1298

>  <InChI>  (9) 
InChI=1S/C17H19N5S/c1-11-16(23-12(2)19-11)15-9-10-18-17(21-15)20-13-5-7-14(8-6-13)22(3)4/h5-10H,1-4H3,(H,18,20,21)

>  <InChIKey>  (9) 
FGGSNQOBRJVAKL-UHFFFAOYSA-N

>  <SMILES>  (9) 
Cc1c(sc(n1)C)c2ccnc(n2)Nc3ccc(cc3)N(C)C

>  <MissingHeavyAtoms>  (9) 
0

>  <Model>  (9) 
1

>  <AltIds>  (9) 


>  <pKI>  (9) 
6.63

>  <ChemblID>  (9) 
CHEMBL46817

>  <standardized_canonical_smiles>  (9) 
Cc1nc(C)c(-c2ccnc(Nc3ccc(N(C)C)cc3)n2)s1

$$$$
1PXP_CK8_A_500
     RDKit          3D

 23 25  0  0  0  0  0  0  0  0999 V2000
   25.8400   38.9330    7.6930 C   0  0  0  0  0  0  0  0  0  0  0  0
   24.8070   39.6250    7.1580 N   0  0  0  0  0  0  0  0  0  0  0  0
   24.6340   40.8890    7.5400 C   0  0  0  0  0  0  0  0  0  0  0  0
   25.4070   41.5310    8.4140 N   0  0  0  0  0  0  0  0  0  0  0  0
   26.4580   40.9120    8.9870 C   0  0  0  0  0  0  0  0  0  0  0  0
   26.7260   39.5300    8.6380 C   0  0  0  0  0  0  0  0  0  0  0  0
   27.2300   41.7030    9.9210 C   0  0  0  0  0  0  0  0  0  0  0  0
   28.4880   41.5580   10.5510 C   0  0  0  0  0  0  0  0  0  0  0  0
   28.8380   42.5880   11.3930 N   0  0  0  0  0  0  0  0  0  0  0  0
   27.8800   43.5160   11.4230 C   0  0  0  0  0  0  0  0  0  0  0  0
   26.5200   43.2120   10.4510 S   0  0  0  0  0  0  0  0  0  0  0  0
   29.4860   40.4140   10.4090 C   0  0  0  0  0  0  0  0  0  0  0  0
   27.9500   44.7810   12.2540 C   0  0  0  0  0  0  0  0  0  0  0  0
   23.5220   41.5710    6.9430 N   0  0  0  0  0  0  0  0  0  0  0  0
   22.9310   42.8980    7.0440 C   0  0  0  0  0  0  0  0  0  0  0  0
   23.4270   43.9110    7.9250 C   0  0  0  0  0  0  0  0  0  0  0  0
   22.8120   45.1810    7.9760 C   0  0  0  0  0  0  0  0  0  0  0  0
   21.6760   45.4890    7.1470 C   0  0  0  0  0  0  0  0  0  0  0  0
   21.1900   44.4540    6.2710 C   0  0  0  0  0  0  0  0  0  0  0  0
   21.8070   43.1830    6.2250 C   0  0  0  0  0  0  0  0  0  0  0  0
   21.0260   46.8450    7.1980 N   0  0  0  0  0  0  0  0  0  0  0  0
   19.8470   47.2080    6.3560 C   0  0  0  0  0  0  0  0  0  0  0  0
   21.5130   47.9360    8.0960 C   0  0  0  0  0  0  0  0  0  0  0  0
  2  1  2  0
  6  1  1  0
  3  2  1  0
  4  3  2  0
 14  3  1  0
  5  4  1  0
  6  5  2  0
  7  5  1  0
  8  7  2  0
 11  7  1  0
  9  8  1  0
 12  8  1  0
 10  9  2  0
 11 10  1  0
 13 10  1  0
 15 14  1  0
 16 15  2  0
 20 15  1  0
 17 16  1  0
 18 17  2  0
 19 18  1  0
 21 18  1  0
 20 19  2  0
 22 21  1  0
 23 21  1  0
A    1
C6
A    2
N1
A    3
C2
A    4
N3
A    5
C4
A    6
C5
A    7
C5A
A    8
C1A
A    9
N2A
A   10
C3A
A   11
S4A
A   12
C6A
A   13
C7A
A   14
N7
A   15
C1B
A   16
C2B
A   17
C3B
A   18
C4B
A   19
C5B
A   20
C6B
A   21
N7B
A   22
C8B
A   23
C9B
M  END
>  <Id>  (10) 
1PXP_CK8_A_500

>  <ChainId>  (10) 
A

>  <AsymId>  (10) 
B

>  <SeqNum>  (10) 
500

>  <Name>  (10) 
N-[4-(2,4-DIMETHYL-THIAZOL-5-YL)-PYRIMIDIN-2-YL]-N',N'-DIMETHYL-BENZENE-1,4-DIAMINE

>  <SystematicName>  (10) 
N-[4-(2,4-dimethyl-1,3-thiazol-5-yl)pyrimidin-2-yl]-N',N'-dimethyl-benzene-1,4-diamine

>  <Synonyms>  (10) 


>  <Type>  (10) 
NON-POLYMER

>  <Formula>  (10) 
C17 H19 N5 S

>  <ObservedFormula>  (10) 
C17 S N5

>  <MolecularWeight>  (10) 
325.431

>  <ModifiedDate>  (10) 
2011-06-04

>  <Parent>  (10) 


>  <OneLetterCode>  (10) 


>  <SubcomponentList>  (10) 


>  <AmbiguousFlag>  (10) 
N

>  <InsertionCode>  (10) 


>  <InstanceId>  (10) 
1PXP_CK8_A_500

>  <ChemCompId>  (10) 
CK8

>  <PdbId>  (10) 
1PXP

>  <ResidueNumber>  (10) 
500

>  <InChI>  (10) 
InChI=1S/C17H19N5S/c1-11-16(23-12(2)19-11)15-9-10-18-17(21-15)20-13-5-7-14(8-6-13)22(3)4/h5-10H,1-4H3,(H,18,20,21)

>  <InChIKey>  (10) 
FGGSNQOBRJVAKL-UHFFFAOYSA-N

>  <SMILES>  (10) 
Cc1c(sc(n1)C)c2ccnc(n2)Nc3ccc(cc3)N(C)C

>  <MissingHeavyAtoms>  (10) 
0

>  <Model>  (10) 
1

>  <AltIds>  (10) 


>  <pKI>  (10) 
6.63

>  <ChemblID>  (10) 
CHEMBL46817

>  <standardized_canonical_smiles>  (10) 
Cc1nc(C)c(-c2ccnc(Nc3ccc(N(C)C)cc3)n2)s1

$$$$
1PXO_CK7_A_500
     RDKit          3D

 23 25  0  0  0  0  0  0  0  0999 V2000
   14.7020   -5.2550   10.1310 N   0  0  0  0  0  0  0  0  0  0  0  0
   14.7660   -5.9900   11.4310 C   0  0  0  0  0  0  0  0  0  0  0  0
   15.4960   -5.8690   12.5650 N   0  0  0  0  0  0  0  0  0  0  0  0
   15.1960   -6.8040   13.5350 C   0  0  0  0  0  0  0  0  0  0  0  0
   15.8970   -6.8110   14.8620 C   0  0  0  0  0  0  0  0  0  0  0  0
   13.6990   -7.2760   11.4070 S   0  0  0  0  0  0  0  0  0  0  0  0
   14.1890   -7.7700   12.9130 C   0  0  0  0  0  0  0  0  0  0  0  0
   13.2790   -8.8080   13.4660 C   0  0  0  0  0  0  0  0  0  0  0  0
   12.3730   -9.3710   12.6010 N   0  0  0  0  0  0  0  0  0  0  0  0
   13.3580   -9.2110   14.7900 C   0  0  0  0  0  0  0  0  0  0  0  0
   12.4300  -10.1380   15.1760 C   0  0  0  0  0  0  0  0  0  0  0  0
   11.5250  -10.6350   14.2790 N   0  0  0  0  0  0  0  0  0  0  0  0
   11.5050  -10.2940   13.0070 C   0  0  0  0  0  0  0  0  0  0  0  0
   10.5780  -10.8880   12.2810 N   0  0  0  0  0  0  0  0  0  0  0  0
   10.0520  -10.2350   11.0800 C   0  0  0  0  0  0  0  0  0  0  0  0
    8.8050  -10.6350   10.5230 C   0  0  0  0  0  0  0  0  0  0  0  0
   10.7100   -9.1400   10.4320 C   0  0  0  0  0  0  0  0  0  0  0  0
   10.1840   -8.4610    9.2830 C   0  0  0  0  0  0  0  0  0  0  0  0
   10.7800   -7.3830    8.6140 N   0  0  0  0  0  0  0  0  0  0  0  0
   10.4450   -6.2070    8.8780 O   0  0  0  0  0  0  0  0  0  0  0  0
   11.6570   -7.5990    7.7480 O   0  0  0  0  0  0  0  0  0  0  0  0
    8.9600   -8.8910    8.7530 C   0  0  0  0  0  0  0  0  0  0  0  0
    8.2690   -9.9550    9.3830 C   0  0  0  0  0  0  0  0  0  0  0  0
  2  1  1  0
  3  2  2  0
  6  2  1  0
  4  3  1  0
  5  4  1  0
  7  4  2  0
  7  6  1  0
  8  7  1  0
  9  8  2  0
 10  8  1  0
 13  9  1  0
 11 10  2  0
 12 11  1  0
 13 12  2  0
 14 13  1  0
 15 14  1  0
 16 15  2  0
 17 15  1  0
 23 16  1  0
 18 17  2  0
 19 18  1  0
 22 18  1  0
 20 19  1  0
 21 19  2  0
 23 22  2  0
M  CHG  2  19   1  20  -1
A    1
N7A
A    2
C3A
A    3
N2A
A    4
C1A
A    5
C6A
A    6
S4A
A    7
C5A
A    8
C4
A    9
N3
A   10
C5
A   11
C6
A   12
N1
A   13
C2
A   14
N7
A   15
C1B
A   16
C6B
A   17
C2B
A   18
C3B
A   19
N7B
A   20
O8B
A   21
O9B
A   22
C4B
A   23
C5B
M  END
>  <Id>  (11) 
1PXO_CK7_A_500

>  <ChainId>  (11) 
A

>  <AsymId>  (11) 
B

>  <SeqNum>  (11) 
500

>  <Name>  (11) 
[4-(2-AMINO-4-METHYL-THIAZOL-5-YL)-PYRIMIDIN-2-YL]-(3-NITRO-PHENYL)-AMINE

>  <SystematicName>  (11) 
4-(2-amino-4-methyl-1,3-thiazol-5-yl)-N-(3-nitrophenyl)pyrimidin-2-amine

>  <Synonyms>  (11) 


>  <Type>  (11) 
NON-POLYMER

>  <Formula>  (11) 
C14 H12 N6 O2 S

>  <ObservedFormula>  (11) 
C14 S N6 O2

>  <MolecularWeight>  (11) 
328.349

>  <ModifiedDate>  (11) 
2011-06-04

>  <Parent>  (11) 


>  <OneLetterCode>  (11) 


>  <SubcomponentList>  (11) 


>  <AmbiguousFlag>  (11) 
N

>  <InsertionCode>  (11) 


>  <InstanceId>  (11) 
1PXO_CK7_A_500

>  <ChemCompId>  (11) 
CK7

>  <PdbId>  (11) 
1PXO

>  <ResidueNumber>  (11) 
500

>  <InChI>  (11) 
InChI=1S/C14H12N6O2S/c1-8-12(23-13(15)17-8)11-5-6-16-14(19-11)18-9-3-2-4-10(7-9)20(21)22/h2-7H,1H3,(H2,15,17)(H,16,18,19)

>  <InChIKey>  (11) 
DYTKVFHLKPDNRW-UHFFFAOYSA-N

>  <SMILES>  (11) 
Cc1c(sc(n1)N)c2ccnc(n2)Nc3cccc(c3)[N+](=O)[O-]

>  <MissingHeavyAtoms>  (11) 
0

>  <Model>  (11) 
1

>  <AltIds>  (11) 


>  <pKI>  (11) 
8.7

>  <ChemblID>  (11) 
CHEMBL298445

>  <standardized_canonical_smiles>  (11) 
Cc1nc(N)sc1-c1ccnc(Nc2cccc([N+](=O)[O-])c2)n1

$$$$
2WEV_CK7_C_1298
     RDKit          3D

 23 25  0  0  0  0  0  0  0  0999 V2000
   44.1270   52.7000   26.1410 N   0  0  0  0  0  0  0  0  0  0  0  0
   44.1150   51.9500   25.0210 C   0  0  0  0  0  0  0  0  0  0  0  0
   43.4370   52.3500   23.9510 N   0  0  0  0  0  0  0  0  0  0  0  0
   43.5440   51.4540   22.9850 C   0  0  0  0  0  0  0  0  0  0  0  0
   42.8450   51.7060   21.6760 C   0  0  0  0  0  0  0  0  0  0  0  0
   44.8920   50.5080   24.8740 S   0  0  0  0  0  0  0  0  0  0  0  0
   44.3090   50.4090   23.3480 C   0  0  0  0  0  0  0  0  0  0  0  0
   44.6780   49.2310   22.4680 C   0  0  0  0  0  0  0  0  0  0  0  0
   45.4850   48.3010   22.9880 N   0  0  0  0  0  0  0  0  0  0  0  0
   44.4630   49.2130   21.0940 C   0  0  0  0  0  0  0  0  0  0  0  0
   45.1120   48.2710   20.3220 C   0  0  0  0  0  0  0  0  0  0  0  0
   45.9040   47.3760   20.9190 N   0  0  0  0  0  0  0  0  0  0  0  0
   46.1090   47.3860   22.2240 C   0  0  0  0  0  0  0  0  0  0  0  0
   47.0460   46.5210   22.7150 N   0  0  0  0  0  0  0  0  0  0  0  0
   47.5130   46.4370   24.0070 C   0  0  0  0  0  0  0  0  0  0  0  0
   48.1530   45.2640   24.3730 C   0  0  0  0  0  0  0  0  0  0  0  0
   47.4180   47.4790   24.9440 C   0  0  0  0  0  0  0  0  0  0  0  0
   47.9230   47.3200   26.2370 C   0  0  0  0  0  0  0  0  0  0  0  0
   47.5840   48.2140   27.2260 N   0  0  0  0  0  0  0  0  0  0  0  0
   48.1550   49.2970   27.2710 O   0  0  0  0  0  0  0  0  0  0  0  0
   46.5620   48.0640   27.9070 O   0  0  0  0  0  0  0  0  0  0  0  0
   48.5550   46.1350   26.5790 C   0  0  0  0  0  0  0  0  0  0  0  0
   48.6620   45.1080   25.6540 C   0  0  0  0  0  0  0  0  0  0  0  0
  2  1  1  0
  3  2  2  0
  6  2  1  0
  4  3  1  0
  5  4  1  0
  7  4  2  0
  7  6  1  0
  8  7  1  0
  9  8  2  0
 10  8  1  0
 13  9  1  0
 11 10  2  0
 12 11  1  0
 13 12  2  0
 14 13  1  0
 15 14  1  0
 16 15  2  0
 17 15  1  0
 23 16  1  0
 18 17  2  0
 19 18  1  0
 22 18  1  0
 20 19  1  0
 21 19  2  0
 23 22  2  0
M  CHG  2  19   1  20  -1
A    1
N7A
A    2
C3A
A    3
N2A
A    4
C1A
A    5
C6A
A    6
S4A
A    7
C5A
A    8
C4
A    9
N3
A   10
C5
A   11
C6
A   12
N1
A   13
C2
A   14
N7
A   15
C1B
A   16
C6B
A   17
C2B
A   18
C3B
A   19
N7B
A   20
O8B
A   21
O9B
A   22
C4B
A   23
C5B
M  END
>  <Id>  (12) 
2WEV_CK7_C_1298

>  <ChainId>  (12) 
C

>  <AsymId>  (12) 
H

>  <SeqNum>  (12) 
1298

>  <Name>  (12) 
[4-(2-AMINO-4-METHYL-THIAZOL-5-YL)-PYRIMIDIN-2-YL]-(3-NITRO-PHENYL)-AMINE

>  <SystematicName>  (12) 
4-(2-amino-4-methyl-1,3-thiazol-5-yl)-N-(3-nitrophenyl)pyrimidin-2-amine

>  <Synonyms>  (12) 


>  <Type>  (12) 
NON-POLYMER

>  <Formula>  (12) 
C14 H12 N6 O2 S

>  <ObservedFormula>  (12) 
C14 S N6 O2

>  <MolecularWeight>  (12) 
328.349

>  <ModifiedDate>  (12) 
2011-06-04

>  <Parent>  (12) 


>  <OneLetterCode>  (12) 


>  <SubcomponentList>  (12) 


>  <AmbiguousFlag>  (12) 
N

>  <InsertionCode>  (12) 


>  <InstanceId>  (12) 
2WEV_CK7_C_1298

>  <ChemCompId>  (12) 
CK7

>  <PdbId>  (12) 
2WEV

>  <ResidueNumber>  (12) 
1298

>  <InChI>  (12) 
InChI=1S/C14H12N6O2S/c1-8-12(23-13(15)17-8)11-5-6-16-14(19-11)18-9-3-2-4-10(7-9)20(21)22/h2-7H,1H3,(H2,15,17)(H,16,18,19)

>  <InChIKey>  (12) 
DYTKVFHLKPDNRW-UHFFFAOYSA-N

>  <SMILES>  (12) 
Cc1c(sc(n1)N)c2ccnc(n2)Nc3cccc(c3)[N+](=O)[O-]

>  <MissingHeavyAtoms>  (12) 
0

>  <Model>  (12) 
1

>  <AltIds>  (12) 


>  <pKI>  (12) 
8.7

>  <ChemblID>  (12) 
CHEMBL298445

>  <standardized_canonical_smiles>  (12) 
Cc1nc(N)sc1-c1ccnc(Nc2cccc([N+](=O)[O-])c2)n1

$$$$
3SW4_18K_A_299
     RDKit          3D

 23 25  0  0  0  0  0  0  0  0999 V2000
   13.3310    7.6580  -10.7870 S   0  0  0  0  0  0  0  0  0  0  0  0
   15.9570    7.1430  -13.8380 C   0  0  0  0  0  0  0  0  0  0  0  0
   15.5680    6.5490  -11.4680 N   0  0  0  0  0  0  0  0  0  0  0  0
   15.1280    7.2090  -12.6000 C   0  0  0  0  0  0  0  0  0  0  0  0
   14.9890    6.2370   -9.2200 N   0  0  0  0  0  0  0  0  0  0  0  0
   14.7500    6.7050  -10.4530 C   0  0  0  0  0  0  0  0  0  0  0  0
   11.3310   10.2870  -14.7170 N   0  0  0  0  0  0  0  0  0  0  0  0
   13.9110    7.8890  -12.4240 C   0  0  0  0  0  0  0  0  0  0  0  0
   10.1120   10.6080  -12.8170 N   0  0  0  0  0  0  0  0  0  0  0  0
   13.0650    8.7100  -13.3070 C   0  0  0  0  0  0  0  0  0  0  0  0
    7.7990   10.5220   -7.6470 N   0  0  0  0  0  0  0  0  0  0  0  0
   13.3150    8.9100  -14.6590 C   0  0  0  0  0  0  0  0  0  0  0  0
   12.0220    9.2670  -12.6730 N   0  0  0  0  0  0  0  0  0  0  0  0
   12.3980    9.7220  -15.3070 C   0  0  0  0  0  0  0  0  0  0  0  0
   11.1850   10.0280  -13.4110 C   0  0  0  0  0  0  0  0  0  0  0  0
    9.5530   10.5680  -11.5240 C   0  0  0  0  0  0  0  0  0  0  0  0
    8.5980   11.5200  -11.1720 C   0  0  0  0  0  0  0  0  0  0  0  0
    8.0590   11.5340   -9.8970 C   0  0  0  0  0  0  0  0  0  0  0  0
    8.4640   10.5750   -8.9720 C   0  0  0  0  0  0  0  0  0  0  0  0
    6.4220    9.9460   -7.7240 C   0  0  0  0  0  0  0  0  0  0  0  0
    8.6120    9.8470   -6.5930 C   0  0  0  0  0  0  0  0  0  0  0  0
    9.4310    9.6250   -9.3100 C   0  0  0  0  0  0  0  0  0  0  0  0
    9.9680    9.6290  -10.5860 C   0  0  0  0  0  0  0  0  0  0  0  0
  6  1  1  0
  8  1  1  0
  4  2  1  0
  4  3  1  0
  6  3  2  0
  8  4  2  0
  6  5  1  0
 14  7  2  0
 15  7  1  0
 10  8  1  0
 15  9  1  0
 16  9  1  0
 12 10  2  0
 13 10  1  0
 19 11  1  0
 20 11  1  0
 21 11  1  0
 14 12  1  0
 15 13  2  0
 17 16  2  0
 23 16  1  0
 18 17  1  0
 19 18  2  0
 22 19  1  0
 23 22  2  0
A    1
S
A    2
C1
A    3
N1
A    4
C2
A    5
N2
A    6
C3
A    7
N3
A    8
C4
A    9
N4
A   10
C5
A   11
N5
A   12
C6
A   13
N6
A   14
C7
A   15
C8
A   16
C9
A   17
C10
A   18
C11
A   19
C12
A   20
C13
A   21
C14
A   22
C15
A   23
C16
M  END
>  <Id>  (13) 
3SW4_18K_A_299

>  <ChainId>  (13) 
A

>  <AsymId>  (13) 
B

>  <SeqNum>  (13) 
299

>  <Name>  (13) 
N'-[4-(2-amino-4-methyl-1,3-thiazol-5-yl)pyrimidin-2-yl]-N,N-dimethylbenzene-1,4-diamine

>  <SystematicName>  (13) 
N4-[4-(2-azanyl-4-methyl-1,3-thiazol-5-yl)pyrimidin-2-yl]-N1,N1-dimethyl-benzene-1,4-diamine

>  <Synonyms>  (13) 


>  <Type>  (13) 
NON-POLYMER

>  <Formula>  (13) 
C16 H18 N6 S

>  <ObservedFormula>  (13) 
S C16 N6

>  <MolecularWeight>  (13) 
326.419

>  <ModifiedDate>  (13) 
2012-07-27

>  <Parent>  (13) 


>  <OneLetterCode>  (13) 


>  <SubcomponentList>  (13) 


>  <AmbiguousFlag>  (13) 
N

>  <InsertionCode>  (13) 


>  <InstanceId>  (13) 
3SW4_18K_A_299

>  <ChemCompId>  (13) 
18K

>  <PdbId>  (13) 
3SW4

>  <ResidueNumber>  (13) 
299

>  <InChI>  (13) 
InChI=1S/C16H18N6S/c1-10-14(23-15(17)19-10)13-8-9-18-16(21-13)20-11-4-6-12(7-5-11)22(2)3/h4-9H,1-3H3,(H2,17,19)(H,18,20,21)

>  <InChIKey>  (13) 
WGPQOBMGPFXDSX-UHFFFAOYSA-N

>  <SMILES>  (13) 
Cc1c(sc(n1)N)c2ccnc(n2)Nc3ccc(cc3)N(C)C

>  <MissingHeavyAtoms>  (13) 
0

>  <Model>  (13) 
1

>  <AltIds>  (13) 


>  <pKI>  (13) 
6.15

>  <ChemblID>  (13) 
CHEMBL295398

>  <standardized_canonical_smiles>  (13) 
Cc1nc(N)sc1-c1ccnc(Nc2ccc(N(C)C)cc2)n1

$$$$
1PXN_CK6_A_500
     RDKit          3D

 22 24  0  0  0  0  0  0  0  0999 V2000
   -2.4600    4.7530   25.0770 C   0  0  0  0  0  0  0  0  0  0  0  0
   -1.4870    5.8930   25.1480 C   0  0  0  0  0  0  0  0  0  0  0  0
   -1.8230    6.9900   24.4360 N   0  0  0  0  0  0  0  0  0  0  0  0
   -1.0310    8.0170   24.4600 C   0  0  0  0  0  0  0  0  0  0  0  0
   -1.3230    9.1160   23.7770 N   0  0  0  0  0  0  0  0  0  0  0  0
   -0.5270   10.3440   23.7120 C   0  0  0  0  0  0  0  0  0  0  0  0
   -0.3030    6.0690   25.8020 C   0  0  0  0  0  0  0  0  0  0  0  0
    0.3640    7.7080   25.4720 S   0  0  0  0  0  0  0  0  0  0  0  0
    0.5200    5.2340   26.7180 C   0  0  0  0  0  0  0  0  0  0  0  0
    0.1510    3.9250   27.0580 C   0  0  0  0  0  0  0  0  0  0  0  0
    1.6430    5.8030   27.2150 N   0  0  0  0  0  0  0  0  0  0  0  0
    2.4550    5.1190   28.0750 C   0  0  0  0  0  0  0  0  0  0  0  0
    2.1790    3.8330   28.4650 N   0  0  0  0  0  0  0  0  0  0  0  0
    1.0330    3.2900   27.9350 C   0  0  0  0  0  0  0  0  0  0  0  0
    3.5610    5.6870   28.5730 N   0  0  0  0  0  0  0  0  0  0  0  0
    4.0940    6.9570   28.3490 C   0  0  0  0  0  0  0  0  0  0  0  0
    3.4980    7.8870   27.4780 C   0  0  0  0  0  0  0  0  0  0  0  0
    3.9930    9.1440   27.2280 C   0  0  0  0  0  0  0  0  0  0  0  0
    5.2890    7.3980   28.9900 C   0  0  0  0  0  0  0  0  0  0  0  0
    5.8130    8.6910   28.7490 C   0  0  0  0  0  0  0  0  0  0  0  0
    5.1570    9.5680   27.8590 C   0  0  0  0  0  0  0  0  0  0  0  0
    5.6020   10.8530   27.5600 O   0  0  0  0  0  0  0  0  0  0  0  0
  2  1  1  0
  3  2  1  0
  7  2  2  0
  4  3  2  0
  5  4  1  0
  8  4  1  0
  6  5  1  0
  8  7  1  0
  9  7  1  0
 10  9  2  0
 11  9  1  0
 14 10  1  0
 12 11  2  0
 13 12  1  0
 15 12  1  0
 14 13  2  0
 16 15  1  0
 17 16  2  0
 19 16  1  0
 18 17  1  0
 21 18  2  0
 20 19  2  0
 21 20  1  0
 22 21  1  0
A    1
C6A
A    2
C1A
A    3
N2A
A    4
C3A
A    5
N7A
A    6
C8A
A    7
C5A
A    8
S4A
A    9
C4
A   10
C5
A   11
N3
A   12
C2
A   13
N1
A   14
C6
A   15
N7
A   16
C1B
A   17
C2B
A   18
C3B
A   19
C6B
A   20
C5B
A   21
C4B
A   22
O7B
M  END
>  <Id>  (14) 
1PXN_CK6_A_500

>  <ChainId>  (14) 
A

>  <AsymId>  (14) 
B

>  <SeqNum>  (14) 
500

>  <Name>  (14) 
4-[4-(4-METHYL-2-METHYLAMINO-THIAZOL-5-YL)-PYRIMIDIN-2-YLAMINO]-PHENOL

>  <SystematicName>  (14) 
4-[[4-(4-methyl-2-methylamino-1,3-thiazol-5-yl)pyrimidin-2-yl]amino]phenol

>  <Synonyms>  (14) 


>  <Type>  (14) 
NON-POLYMER

>  <Formula>  (14) 
C15 H15 N5 O S

>  <ObservedFormula>  (14) 
C15 S N5 O

>  <MolecularWeight>  (14) 
313.378

>  <ModifiedDate>  (14) 
2011-06-04

>  <Parent>  (14) 


>  <OneLetterCode>  (14) 


>  <SubcomponentList>  (14) 


>  <AmbiguousFlag>  (14) 
N

>  <InsertionCode>  (14) 


>  <InstanceId>  (14) 
1PXN_CK6_A_500

>  <ChemCompId>  (14) 
CK6

>  <PdbId>  (14) 
1PXN

>  <ResidueNumber>  (14) 
500

>  <InChI>  (14) 
InChI=1S/C15H15N5OS/c1-9-13(22-15(16-2)18-9)12-7-8-17-14(20-12)19-10-3-5-11(21)6-4-10/h3-8,21H,1-2H3,(H,16,18)(H,17,19,20)

>  <InChIKey>  (14) 
OTMLAWRVLMYMDF-UHFFFAOYSA-N

>  <SMILES>  (14) 
Cc1c(sc(n1)NC)c2ccnc(n2)Nc3ccc(cc3)O

>  <MissingHeavyAtoms>  (14) 
0

>  <Model>  (14) 
1

>  <AltIds>  (14) 


>  <pKI>  (14) 
7.15

>  <ChemblID>  (14) 
CHEMBL47590

>  <standardized_canonical_smiles>  (14) 
CNc1nc(C)c(-c2ccnc(Nc3ccc(O)cc3)n2)s1

$$$$
3SW7_19K_A_299
     RDKit          3D

 26 28  0  0  0  0  0  0  0  0999 V2000
   13.0150    7.2400  -10.8720 S   0  0  0  0  0  0  0  0  0  0  0  0
   14.3780    5.3150   -9.3090 C   0  0  0  0  0  0  0  0  0  0  0  0
   15.2580    6.1370  -11.4630 N   0  0  0  0  0  0  0  0  0  0  0  0
    7.1530   13.4840  -10.1070 O   0  0  0  0  0  0  0  0  0  0  0  0
   14.3330    6.1540  -10.5460 C   0  0  0  0  0  0  0  0  0  0  0  0
   11.3680   10.2960  -14.6630 N   0  0  0  0  0  0  0  0  0  0  0  0
   14.9800    7.0000  -12.5100 C   0  0  0  0  0  0  0  0  0  0  0  0
   10.1430   10.6200  -12.7430 N   0  0  0  0  0  0  0  0  0  0  0  0
   16.0020    7.1620  -13.5850 C   0  0  0  0  0  0  0  0  0  0  0  0
    8.0820   10.1240   -7.4370 N   0  0  0  0  0  0  0  0  0  0  0  0
   13.7580    7.6900  -12.3850 C   0  0  0  0  0  0  0  0  0  0  0  0
    7.1290   12.4640   -9.4340 N   0  0  0  0  0  0  0  0  0  0  0  0
   12.9690    8.5720  -13.2650 C   0  0  0  0  0  0  0  0  0  0  0  0
   11.9440    9.1700  -12.6380 N   0  0  0  0  0  0  0  0  0  0  0  0
   13.2600    8.7940  -14.6060 C   0  0  0  0  0  0  0  0  0  0  0  0
   12.4030    9.6700  -15.2520 C   0  0  0  0  0  0  0  0  0  0  0  0
   11.1760   10.0040  -13.3690 C   0  0  0  0  0  0  0  0  0  0  0  0
    9.5820   10.5120  -11.4500 C   0  0  0  0  0  0  0  0  0  0  0  0
    9.9510    9.4790  -10.5990 C   0  0  0  0  0  0  0  0  0  0  0  0
    9.4170    9.3920   -9.3280 C   0  0  0  0  0  0  0  0  0  0  0  0
    8.4970   10.3100   -8.8520 C   0  0  0  0  0  0  0  0  0  0  0  0
    6.6500    9.7330   -7.2880 C   0  0  0  0  0  0  0  0  0  0  0  0
    8.4480   11.2710   -6.5530 C   0  0  0  0  0  0  0  0  0  0  0  0
    8.0820   11.3880   -9.7630 C   0  0  0  0  0  0  0  0  0  0  0  0
    8.6630   11.4640  -11.0170 C   0  0  0  0  0  0  0  0  0  0  0  0
    6.4730   12.3710   -8.4130 O   0  0  0  0  0  0  0  0  0  0  0  0
  5  1  1  0
 11  1  1  0
  5  2  1  0
  5  3  2  0
  7  3  1  0
 12  4  2  0
 16  6  2  0
 17  6  1  0
  9  7  1  0
 11  7  2  0
 17  8  1  0
 18  8  1  0
 21 10  1  0
 22 10  1  0
 23 10  1  0
 13 11  1  0
 24 12  1  0
 26 12  1  0
 14 13  1  0
 15 13  2  0
 17 14  2  0
 16 15  1  0
 19 18  2  0
 25 18  1  0
 20 19  1  0
 21 20  2  0
 24 21  1  0
 25 24  2  0
M  CHG  2  12   1  26  -1
A    1
S
A    2
C1
A    3
N1
A    4
O1
A    5
C2
A    6
N2
A    7
C3
A    8
N3
A    9
C4
A   10
N4
A   11
C5
A   12
N5
A   13
C6
A   14
N6
A   15
C7
A   16
C8
A   17
C9
A   18
C10
A   19
C11
A   20
C12
A   21
C13
A   22
C14
A   23
C15
A   24
C16
A   25
C17
A   26
O2
M  END
>  <Id>  (15) 
3SW7_19K_A_299

>  <ChainId>  (15) 
A

>  <AsymId>  (15) 
B

>  <SeqNum>  (15) 
299

>  <Name>  (15) 
N~4~-[4-(2,4-dimethyl-1,3-thiazol-5-yl)pyrimidin-2-yl]-N~1~,N~1~-dimethyl-2-nitrobenzene-1,4-diamine

>  <SystematicName>  (15) 
N4-[4-(2,4-dimethyl-1,3-thiazol-5-yl)pyrimidin-2-yl]-N1,N1-dimethyl-2-nitro-benzene-1,4-diamine

>  <Synonyms>  (15) 


>  <Type>  (15) 
NON-POLYMER

>  <Formula>  (15) 
C17 H18 N6 O2 S

>  <ObservedFormula>  (15) 
S C17 N6 O2

>  <MolecularWeight>  (15) 
370.429

>  <ModifiedDate>  (15) 
2012-07-27

>  <Parent>  (15) 


>  <OneLetterCode>  (15) 


>  <SubcomponentList>  (15) 


>  <AmbiguousFlag>  (15) 
N

>  <InsertionCode>  (15) 


>  <InstanceId>  (15) 
3SW7_19K_A_299

>  <ChemCompId>  (15) 
19K

>  <PdbId>  (15) 
3SW7

>  <ResidueNumber>  (15) 
299

>  <InChI>  (15) 
InChI=1S/C17H18N6O2S/c1-10-16(26-11(2)19-10)13-7-8-18-17(21-13)20-12-5-6-14(22(3)4)15(9-12)23(24)25/h5-9H,1-4H3,(H,18,20,21)

>  <InChIKey>  (15) 
MYHBMTAGTIOCHM-UHFFFAOYSA-N

>  <SMILES>  (15) 
Cc1c(sc(n1)C)c2ccnc(n2)Nc3ccc(c(c3)[N+](=O)[O-])N(C)C

>  <MissingHeavyAtoms>  (15) 
0

>  <Model>  (15) 
1

>  <AltIds>  (15) 


>  <pKI>  (15) 
7.7

>  <ChemblID>  (15) 
CHEMBL295484

>  <standardized_canonical_smiles>  (15) 
Cc1nc(C)c(-c2ccnc(Nc3ccc(N(C)C)c([N+](=O)[O-])c3)n2)s1

$$$$
1PXL_CK4_A_500
     RDKit          3D

 24 26  0  0  0  0  0  0  0  0999 V2000
    8.5860   45.8700   30.4820 F   0  0  0  0  0  0  0  0  0  0  0  0
    7.4920   45.9380   29.5940 C   0  0  0  0  0  0  0  0  0  0  0  0
    6.6520   47.0090   29.9800 F   0  0  0  0  0  0  0  0  0  0  0  0
    6.7780   44.7360   29.6220 F   0  0  0  0  0  0  0  0  0  0  0  0
    8.0710   46.1830   28.1180 C   0  0  0  0  0  0  0  0  0  0  0  0
    7.4150   47.1130   27.2140 C   0  0  0  0  0  0  0  0  0  0  0  0
    7.9630   47.3440   25.9040 C   0  0  0  0  0  0  0  0  0  0  0  0
    9.2760   45.4860   27.6780 C   0  0  0  0  0  0  0  0  0  0  0  0
    9.8190   45.7110   26.3930 C   0  0  0  0  0  0  0  0  0  0  0  0
    9.2100   46.6290   25.4760 C   0  0  0  0  0  0  0  0  0  0  0  0
    9.8050   46.8810   24.1400 N   0  0  0  0  0  0  0  0  0  0  0  0
   10.9180   46.5200   23.2800 C   0  0  0  0  0  0  0  0  0  0  0  0
   10.9680   47.0990   22.0930 N   0  0  0  0  0  0  0  0  0  0  0  0
   12.0090   46.7930   21.2420 C   0  0  0  0  0  0  0  0  0  0  0  0
   13.0550   45.8810   21.5460 C   0  0  0  0  0  0  0  0  0  0  0  0
   11.8620   45.6440   23.6600 N   0  0  0  0  0  0  0  0  0  0  0  0
   12.9530   45.2710   22.8570 C   0  0  0  0  0  0  0  0  0  0  0  0
   13.8620   44.3090   23.4280 C   0  0  0  0  0  0  0  0  0  0  0  0
   13.4400   43.7410   25.0860 S   0  0  0  0  0  0  0  0  0  0  0  0
   15.0560   43.6450   23.0360 C   0  0  0  0  0  0  0  0  0  0  0  0
   15.8070   43.7990   21.6860 C   0  0  0  0  0  0  0  0  0  0  0  0
   15.5950   42.7590   23.9940 N   0  0  0  0  0  0  0  0  0  0  0  0
   14.8030   42.7540   25.0980 C   0  0  0  0  0  0  0  0  0  0  0  0
   14.9890   41.9640   26.3620 C   0  0  0  0  0  0  0  0  0  0  0  0
  2  1  1  0
  3  2  1  0
  4  2  1  0
  5  2  1  0
  6  5  2  0
  8  5  1  0
  7  6  1  0
 10  7  2  0
  9  8  2  0
 10  9  1  0
 11 10  1  0
 12 11  1  0
 13 12  2  0
 16 12  1  0
 14 13  1  0
 15 14  2  0
 17 15  1  0
 17 16  2  0
 18 17  1  0
 19 18  1  0
 20 18  2  0
 23 19  1  0
 21 20  1  0
 22 20  1  0
 23 22  2  0
 24 23  1  0
A    1
F8B
A    2
C7B
A    3
F1B
A    4
F9B
A    5
C4B
A    6
C5B
A    7
C6B
A    8
C3B
A    9
C2B
A   10
C1B
A   11
N7
A   12
C2
A   13
N1
A   14
C6
A   15
C5
A   16
N3
A   17
C4
A   18
C5A
A   19
S4A
A   20
C1A
A   21
C6A
A   22
N2A
A   23
C3A
A   24
C7A
M  END
>  <Id>  (16) 
1PXL_CK4_A_500

>  <ChainId>  (16) 
A

>  <AsymId>  (16) 
B

>  <SeqNum>  (16) 
500

>  <Name>  (16) 
4-(2,4-DIMETHYL-1,3-THIAZOL-5-YL)-N-[4-(TRIFLUOROMETHYL)PHENYL]PYRIMIDIN-2-AMINE

>  <SystematicName>  (16) 
4-(2,4-dimethyl-1,3-thiazol-5-yl)-N-[4-(trifluoromethyl)phenyl]pyrimidin-2-amine

>  <Synonyms>  (16) 
4-(2,4-DIMETHYL-THIAZOL-5-YL)-PYRIMIDIN-2-YL]-(4-TRIFLUOROMETHYL-PHENYL)-AMINE

>  <Type>  (16) 
NON-POLYMER

>  <Formula>  (16) 
C16 H13 F3 N4 S

>  <ObservedFormula>  (16) 
C16 S F3 N4

>  <MolecularWeight>  (16) 
350.361

>  <ModifiedDate>  (16) 
2011-06-04

>  <Parent>  (16) 


>  <OneLetterCode>  (16) 


>  <SubcomponentList>  (16) 


>  <AmbiguousFlag>  (16) 
N

>  <InsertionCode>  (16) 


>  <InstanceId>  (16) 
1PXL_CK4_A_500

>  <ChemCompId>  (16) 
CK4

>  <PdbId>  (16) 
1PXL

>  <ResidueNumber>  (16) 
500

>  <InChI>  (16) 
InChI=1S/C16H13F3N4S/c1-9-14(24-10(2)21-9)13-7-8-20-15(23-13)22-12-5-3-11(4-6-12)16(17,18)19/h3-8H,1-2H3,(H,20,22,23)

>  <InChIKey>  (16) 
MEZFDQUDLQCVNX-UHFFFAOYSA-N

>  <SMILES>  (16) 
Cc1c(sc(n1)C)c2ccnc(n2)Nc3ccc(cc3)C(F)(F)F

>  <MissingHeavyAtoms>  (16) 
0

>  <Model>  (16) 
1

>  <AltIds>  (16) 


>  <pKI>  (16) 
6.54

>  <ChemblID>  (16) 
CHEMBL48109

>  <standardized_canonical_smiles>  (16) 
Cc1nc(C)c(-c2ccnc(Nc3ccc(C(F)(F)F)cc3)n2)s1

$$$$
2C5V_CK4_C_1297
     RDKit          3D

 24 26  0  0  0  0  0  0  0  0999 V2000
   50.7770   45.3350   27.0910 F   0  0  0  0  0  0  0  0  0  0  0  0
   49.6400   45.9650   27.3420 C   0  0  0  0  0  0  0  0  0  0  0  0
   49.8860   47.1110   27.9370 F   0  0  0  0  0  0  0  0  0  0  0  0
   48.9370   45.1770   28.1380 F   0  0  0  0  0  0  0  0  0  0  0  0
   48.8920   46.2970   26.0760 C   0  0  0  0  0  0  0  0  0  0  0  0
   49.0520   45.4660   24.9690 C   0  0  0  0  0  0  0  0  0  0  0  0
   48.3970   45.7170   23.7720 C   0  0  0  0  0  0  0  0  0  0  0  0
   48.0910   47.4310   25.9700 C   0  0  0  0  0  0  0  0  0  0  0  0
   47.4090   47.6580   24.7720 C   0  0  0  0  0  0  0  0  0  0  0  0
   47.5940   46.8350   23.6590 C   0  0  0  0  0  0  0  0  0  0  0  0
   46.9810   46.9980   22.4630 N   0  0  0  0  0  0  0  0  0  0  0  0
   46.1000   47.9810   22.1600 C   0  0  0  0  0  0  0  0  0  0  0  0
   45.6700   48.0400   20.8910 N   0  0  0  0  0  0  0  0  0  0  0  0
   44.7850   48.9650   20.5170 C   0  0  0  0  0  0  0  0  0  0  0  0
   44.2940   49.8530   21.4650 C   0  0  0  0  0  0  0  0  0  0  0  0
   45.6800   48.8720   23.0800 N   0  0  0  0  0  0  0  0  0  0  0  0
   44.7780   49.8250   22.7730 C   0  0  0  0  0  0  0  0  0  0  0  0
   44.5260   50.8970   23.6560 C   0  0  0  0  0  0  0  0  0  0  0  0
   45.0160   50.8310   25.2720 S   0  0  0  0  0  0  0  0  0  0  0  0
   43.4690   51.9430   23.4600 C   0  0  0  0  0  0  0  0  0  0  0  0
   42.7430   52.4650   22.2480 C   0  0  0  0  0  0  0  0  0  0  0  0
   43.3710   52.7530   24.5440 N   0  0  0  0  0  0  0  0  0  0  0  0
   44.1590   52.2710   25.5360 C   0  0  0  0  0  0  0  0  0  0  0  0
   44.2060   52.9200   26.8990 C   0  0  0  0  0  0  0  0  0  0  0  0
  2  1  1  0
  3  2  1  0
  4  2  1  0
  5  2  1  0
  6  5  2  0
  8  5  1  0
  7  6  1  0
 10  7  2  0
  9  8  2  0
 10  9  1  0
 11 10  1  0
 12 11  1  0
 13 12  2  0
 16 12  1  0
 14 13  1  0
 15 14  2  0
 17 15  1  0
 17 16  2  0
 18 17  1  0
 19 18  1  0
 20 18  2  0
 23 19  1  0
 21 20  1  0
 22 20  1  0
 23 22  2  0
 24 23  1  0
A    1
F8B
A    2
C7B
A    3
F1B
A    4
F9B
A    5
C4B
A    6
C5B
A    7
C6B
A    8
C3B
A    9
C2B
A   10
C1B
A   11
N7
A   12
C2
A   13
N1
A   14
C6
A   15
C5
A   16
N3
A   17
C4
A   18
C5A
A   19
S4A
A   20
C1A
A   21
C6A
A   22
N2A
A   23
C3A
A   24
C7A
M  END
>  <Id>  (17) 
2C5V_CK4_C_1297

>  <ChainId>  (17) 
C

>  <AsymId>  (17) 
H

>  <SeqNum>  (17) 
1297

>  <Name>  (17) 
4-(2,4-DIMETHYL-1,3-THIAZOL-5-YL)-N-[4-(TRIFLUOROMETHYL)PHENYL]PYRIMIDIN-2-AMINE

>  <SystematicName>  (17) 
4-(2,4-dimethyl-1,3-thiazol-5-yl)-N-[4-(trifluoromethyl)phenyl]pyrimidin-2-amine

>  <Synonyms>  (17) 
4-(2,4-DIMETHYL-THIAZOL-5-YL)-PYRIMIDIN-2-YL]-(4-TRIFLUOROMETHYL-PHENYL)-AMINE

>  <Type>  (17) 
NON-POLYMER

>  <Formula>  (17) 
C16 H13 F3 N4 S

>  <ObservedFormula>  (17) 
C16 S F3 N4

>  <MolecularWeight>  (17) 
350.361

>  <ModifiedDate>  (17) 
2011-06-04

>  <Parent>  (17) 


>  <OneLetterCode>  (17) 


>  <SubcomponentList>  (17) 


>  <AmbiguousFlag>  (17) 
N

>  <InsertionCode>  (17) 


>  <InstanceId>  (17) 
2C5V_CK4_C_1297

>  <ChemCompId>  (17) 
CK4

>  <PdbId>  (17) 
2C5V

>  <ResidueNumber>  (17) 
1297

>  <InChI>  (17) 
InChI=1S/C16H13F3N4S/c1-9-14(24-10(2)21-9)13-7-8-20-15(23-13)22-12-5-3-11(4-6-12)16(17,18)19/h3-8H,1-2H3,(H,20,22,23)

>  <InChIKey>  (17) 
MEZFDQUDLQCVNX-UHFFFAOYSA-N

>  <SMILES>  (17) 
Cc1c(sc(n1)C)c2ccnc(n2)Nc3ccc(cc3)C(F)(F)F

>  <MissingHeavyAtoms>  (17) 
0

>  <Model>  (17) 
1

>  <AltIds>  (17) 


>  <pKI>  (17) 
6.54

>  <ChemblID>  (17) 
CHEMBL48109

>  <standardized_canonical_smiles>  (17) 
Cc1nc(C)c(-c2ccnc(Nc3ccc(C(F)(F)F)cc3)n2)s1

$$$$
4EK8_16K_A_301
     RDKit          3D

 23 25  0  0  0  0  0  0  0  0999 V2000
    0.0390   -7.3270  -25.4380 S   0  0  0  0  0  0  0  0  0  0  0  0
   -0.6730   -5.9030  -26.1160 C   0  0  0  0  0  0  0  0  0  0  0  0
    1.1400   -5.9170  -27.6260 N   0  0  0  0  0  0  0  0  0  0  0  0
    1.0450  -10.3910  -27.3980 O   0  0  0  0  0  0  0  0  0  0  0  0
    0.1550   -5.1350  -27.0380 C   0  0  0  0  0  0  0  0  0  0  0  0
    1.8540   -3.9640  -28.9460 N   0  0  0  0  0  0  0  0  0  0  0  0
    2.7560  -11.5610  -26.9500 O   0  0  0  0  0  0  0  0  0  0  0  0
    1.9680   -5.3070  -28.5600 C   0  0  0  0  0  0  0  0  0  0  0  0
    3.0520   -5.9570  -29.1740 N   0  0  0  0  0  0  0  0  0  0  0  0
    0.8580   -3.2420  -28.3460 C   0  0  0  0  0  0  0  0  0  0  0  0
    2.2400  -10.5930  -27.4650 N   0  0  0  0  0  0  0  0  0  0  0  0
   -0.0320   -3.7820  -27.3760 C   0  0  0  0  0  0  0  0  0  0  0  0
   -2.3020   -6.6090  -24.5910 N   0  0  0  0  0  0  0  0  0  0  0  0
    3.4490   -7.3080  -28.9750 C   0  0  0  0  0  0  0  0  0  0  0  0
    2.6850   -8.2640  -28.2400 C   0  0  0  0  0  0  0  0  0  0  0  0
    3.1000   -9.6000  -28.2100 C   0  0  0  0  0  0  0  0  0  0  0  0
    4.2690  -10.0350  -28.8690 C   0  0  0  0  0  0  0  0  0  0  0  0
    5.0420   -9.0750  -29.5760 C   0  0  0  0  0  0  0  0  0  0  0  0
    4.6480   -7.7280  -29.6360 C   0  0  0  0  0  0  0  0  0  0  0  0
   -1.9140   -5.6630  -25.5440 C   0  0  0  0  0  0  0  0  0  0  0  0
   -1.3430   -7.5200  -24.4560 C   0  0  0  0  0  0  0  0  0  0  0  0
   -1.4370   -8.6470  -23.4850 C   0  0  0  0  0  0  0  0  0  0  0  0
   -2.8820   -4.5590  -25.7310 C   0  0  0  0  0  0  0  0  0  0  0  0
  2  1  1  0
 21  1  1  0
  5  2  1  0
 20  2  2  0
  5  3  2  0
  8  3  1  0
 11  4  2  0
 12  5  1  0
  8  6  2  0
 10  6  1  0
 11  7  1  0
  9  8  1  0
 14  9  1  0
 12 10  2  0
 16 11  1  0
 20 13  1  0
 21 13  2  0
 15 14  2  0
 19 14  1  0
 16 15  1  0
 17 16  2  0
 18 17  1  0
 19 18  2  0
 23 20  1  0
 22 21  1  0
M  CHG  2   7  -1  11   1
A    1
S
A    2
C1
A    3
N1
A    4
O1
A    5
C2
A    6
N2
A    7
O2
A    8
C3
A    9
N3
A   10
C4
A   11
N4
A   12
C5
A   13
N5
A   14
C6
A   15
C7
A   16
C8
A   17
C9
A   18
C10
A   19
C11
A   20
C12
A   21
C13
A   22
C14
A   23
C15
M  END
>  <Id>  (18) 
4EK8_16K_A_301

>  <ChainId>  (18) 
A

>  <AsymId>  (18) 
B

>  <SeqNum>  (18) 
301

>  <Name>  (18) 
4-(2,4-dimethyl-1,3-thiazol-5-yl)-N-(3-nitrophenyl)pyrimidin-2-amine

>  <SystematicName>  (18) 
4-(2,4-dimethyl-1,3-thiazol-5-yl)-N-(3-nitrophenyl)pyrimidin-2-amine

>  <Synonyms>  (18) 


>  <Type>  (18) 
NON-POLYMER

>  <Formula>  (18) 
C15 H13 N5 O2 S

>  <ObservedFormula>  (18) 
S C15 N5 O2

>  <MolecularWeight>  (18) 
327.361

>  <ModifiedDate>  (18) 
2013-04-26

>  <Parent>  (18) 


>  <OneLetterCode>  (18) 


>  <SubcomponentList>  (18) 


>  <AmbiguousFlag>  (18) 
N

>  <InsertionCode>  (18) 


>  <InstanceId>  (18) 
4EK8_16K_A_301

>  <ChemCompId>  (18) 
16K

>  <PdbId>  (18) 
4EK8

>  <ResidueNumber>  (18) 
301

>  <InChI>  (18) 
InChI=1S/C15H13N5O2S/c1-9-14(23-10(2)17-9)13-6-7-16-15(19-13)18-11-4-3-5-12(8-11)20(21)22/h3-8H,1-2H3,(H,16,18,19)

>  <InChIKey>  (18) 
DEIGLICSSNUYPO-UHFFFAOYSA-N

>  <SMILES>  (18) 
Cc1c(sc(n1)C)c2ccnc(n2)Nc3cccc(c3)[N+](=O)[O-]

>  <MissingHeavyAtoms>  (18) 
0

>  <Model>  (18) 
1

>  <AltIds>  (18) 


>  <pKI>  (18) 
6.96

>  <ChemblID>  (18) 
CHEMBL45408

>  <standardized_canonical_smiles>  (18) 
Cc1nc(C)c(-c2ccnc(Nc3cccc([N+](=O)[O-])c3)n2)s1

$$$$
6GUB_F9Z_C_301
     RDKit          3D

 28 31  0  0  0  0  0  0  0  0999 V2000
  -35.1590   15.9450   32.9840 C   0  0  0  0  0  0  0  0  0  0  0  0
  -33.3530   21.2430   30.3500 C   0  0  0  0  0  0  0  0  0  0  0  0
  -34.7200   15.6150   31.5500 C   0  0  0  0  0  0  0  0  0  0  0  0
  -35.0630   14.3690   30.9710 C   0  0  0  0  0  0  0  0  0  0  0  0
  -32.5450   18.4580   29.3140 C   0  0  0  0  0  0  0  0  0  0  0  0
  -34.7090   14.0610   29.6690 C   0  0  0  0  0  0  0  0  0  0  0  0
  -33.9930   14.9790   28.9220 C   0  0  0  0  0  0  0  0  0  0  0  0
  -33.6320   16.2270   29.4660 C   0  0  0  0  0  0  0  0  0  0  0  0
  -32.9090   17.2110   28.6580 C   0  0  0  0  0  0  0  0  0  0  0  0
  -33.0850   18.7640   30.5320 C   0  0  0  0  0  0  0  0  0  0  0  0
  -33.1500   20.1190   31.1540 C   0  0  0  0  0  0  0  0  0  0  0  0
  -36.6050   16.1240   35.5110 N   0  0  0  0  0  0  0  0  0  0  0  0
  -36.4260   16.8060   33.0760 C   0  0  0  0  0  0  0  0  0  0  0  0
  -36.7320   16.6050   36.8880 C   0  0  0  0  0  0  0  0  0  0  0  0
  -36.7380   17.2160   34.5120 C   0  0  0  0  0  0  0  0  0  0  0  0
  -35.7610   13.4100   31.6320 O   0  0  0  0  0  0  0  0  0  0  0  0
  -33.6550   14.6720   27.6530 O   0  0  0  0  0  0  0  0  0  0  0  0
  -32.6640   17.0030   27.4680 O   0  0  0  0  0  0  0  0  0  0  0  0
  -33.4210   22.5140   30.9040 C   0  0  0  0  0  0  0  0  0  0  0  0
  -33.2620   22.6920   32.2610 C   0  0  0  0  0  0  0  0  0  0  0  0
  -33.0450   21.6130   33.0780 C   0  0  0  0  0  0  0  0  0  0  0  0
  -32.9980   20.3390   32.5260 C   0  0  0  0  0  0  0  0  0  0  0  0
  -32.6910   19.0330   33.6320 Cl  0  0  0  0  0  0  0  0  0  0  0  0
  -33.6740   17.7730   31.3040 O   0  0  0  0  0  0  0  0  0  0  0  0
  -34.0040   16.5350   30.7740 C   0  0  0  0  0  0  0  0  0  0  0  0
  -35.4410   14.7920   33.9420 C   0  0  0  0  0  0  0  0  0  0  0  0
  -34.6120   13.6660   33.7800 O   0  0  0  0  0  0  0  0  0  0  0  0
  -35.3630   15.3640   35.3350 C   0  0  0  0  0  0  0  0  0  0  0  0
  3  1  1  0
 13  1  1  0
 26  1  1  0
 11  2  2  0
 19  2  1  0
  4  3  2  0
 25  3  1  0
  6  4  1  0
 16  4  1  0
  9  5  1  0
 10  5  2  0
  7  6  2  0
  8  7  1  0
 17  7  1  0
  9  8  1  0
 25  8  2  0
 18  9  2  0
 11 10  1  0
 24 10  1  0
 22 11  1  0
 14 12  1  0
 15 12  1  0
 28 12  1  0
 15 13  1  0
 20 19  2  0
 21 20  1  0
 22 21  2  0
 23 22  1  0
 25 24  1  0
 27 26  1  0
 28 26  1  0
A    1
C4
A    2
C14
A    3
C5
A    4
C6
A    5
C11
A    6
C7
A    7
C8
A    8
C9
A    9
C10
A   10
C12
A   11
C13
A   12
N1
A   13
C3
A   14
C1
A   15
C2
A   16
O1
A   17
O2
A   18
O3
A   19
C15
A   20
C16
A   21
C17
A   22
C18
A   23
CL1
A   24
O4
A   25
C19
A   26
C20
A   27
O5
A   28
C21
M  END
>  <Id>  (19) 
6GUB_F9Z_C_301

>  <ChainId>  (19) 
C

>  <AsymId>  (19) 
F

>  <SeqNum>  (19) 
301

>  <Name>  (19) 
2-(2-chlorophenyl)-8-[(3~{R},4~{R})-1-methyl-3-oxidanyl-piperidin-4-yl]-5,7-bis(oxidanyl)chromen-4-one

>  <SystematicName>  (19) 
2-(2-chlorophenyl)-8-[(3~{R},4~{R})-1-methyl-3-oxidanyl-piperidin-4-yl]-5,7-bis(oxidanyl)chromen-4-one

>  <Synonyms>  (19) 


>  <Type>  (19) 
NON-POLYMER

>  <Formula>  (19) 
C21 H20 Cl N O5

>  <ObservedFormula>  (19) 
C21 Cl N O5

>  <MolecularWeight>  (19) 
401.84

>  <ModifiedDate>  (19) 
2018-11-30

>  <Parent>  (19) 


>  <OneLetterCode>  (19) 


>  <SubcomponentList>  (19) 


>  <AmbiguousFlag>  (19) 
N

>  <InsertionCode>  (19) 


>  <InstanceId>  (19) 
6GUB_F9Z_C_301

>  <ChemCompId>  (19) 
F9Z

>  <PdbId>  (19) 
6GUB

>  <ResidueNumber>  (19) 
301

>  <InChI>  (19) 
InChI=1S/C21H20ClNO5/c1-23-7-6-12(17(27)10-23)19-14(24)8-15(25)20-16(26)9-18(28-21(19)20)11-4-2-3-5-13(11)22/h2-5,8-9,12,17,24-25,27H,6-7,10H2,1H3/t12-,17-/m0/s1

>  <InChIKey>  (19) 
BIIVYFLTOXDAOV-SJCJKPOMSA-N

>  <SMILES>  (19) 
CN1CC[C@@H]([C@H](C1)O)c2c(cc(c3c2OC(=CC3=O)c4ccccc4Cl)O)O

>  <MissingHeavyAtoms>  (19) 
0

>  <Model>  (19) 
1

>  <AltIds>  (19) 


>  <pKI>  (19) 
6.72

>  <ChemblID>  (19) 
CHEMBL428690

>  <standardized_canonical_smiles>  (19) 
CN1CC[C@H](c2c(O)cc(O)c3c(=O)cc(-c4ccccc4Cl)oc23)[C@H](O)C1

$$$$
2FVD_LIA_A_299
     RDKit          3D

 30 32  0  0  0  0  0  0  0  0999 V2000
    6.0060   26.4970    6.9800 N   0  0  0  0  0  0  0  0  0  0  0  0
    5.2280   26.2350    5.7370 C   0  0  0  0  0  0  0  0  0  0  0  0
    4.4250   27.4970    5.3560 C   0  0  0  0  0  0  0  0  0  0  0  0
    3.4740   27.9120    6.5080 C   0  0  0  0  0  0  0  0  0  0  0  0
    4.2630   28.0220    7.8590 C   0  0  0  0  0  0  0  0  0  0  0  0
    5.0840   26.7430    8.1290 C   0  0  0  0  0  0  0  0  0  0  0  0
    2.8530   29.1930    6.1450 N   0  0  0  0  0  0  0  0  0  0  0  0
    1.7690   29.5320    6.9000 C   0  0  0  0  0  0  0  0  0  0  0  0
    1.0690   28.5960    7.5970 N   0  0  0  0  0  0  0  0  0  0  0  0
    0.0490   28.9490    8.3170 C   0  0  0  0  0  0  0  0  0  0  0  0
   -0.4000   30.3250    8.4220 C   0  0  0  0  0  0  0  0  0  0  0  0
    0.3640   31.2870    7.6590 C   0  0  0  0  0  0  0  0  0  0  0  0
    1.4370   30.8560    6.9140 N   0  0  0  0  0  0  0  0  0  0  0  0
   -1.5430   30.6550    9.2600 C   0  0  0  0  0  0  0  0  0  0  0  0
   -1.9700   31.8210    9.3190 O   0  0  0  0  0  0  0  0  0  0  0  0
   -2.1970   29.6470   10.0640 C   0  0  0  0  0  0  0  0  0  0  0  0
   -3.5480   29.2590    9.7500 C   0  0  0  0  0  0  0  0  0  0  0  0
   -4.2120   28.2570   10.5240 C   0  0  0  0  0  0  0  0  0  0  0  0
   -3.5480   27.6250   11.6160 C   0  0  0  0  0  0  0  0  0  0  0  0
   -2.2140   27.9920   11.9500 C   0  0  0  0  0  0  0  0  0  0  0  0
   -1.5100   29.0040   11.1890 C   0  0  0  0  0  0  0  0  0  0  0  0
   -0.1880   29.4010   11.4900 O   0  0  0  0  0  0  0  0  0  0  0  0
    0.5550   28.3980   12.2270 C   0  0  0  0  0  0  0  0  0  0  0  0
   -4.2020   29.8250    8.7400 F   0  0  0  0  0  0  0  0  0  0  0  0
   -5.4500   27.9070   10.2290 F   0  0  0  0  0  0  0  0  0  0  0  0
    0.0830   32.6030    7.6390 N   0  0  0  0  0  0  0  0  0  0  0  0
    7.0630   25.2110    7.3100 S   0  0  0  0  0  0  0  0  0  0  0  0
    6.1790   23.6620    7.7100 C   0  0  0  0  0  0  0  0  0  0  0  0
    7.8710   25.5860    8.4490 O   0  0  0  0  0  0  0  0  0  0  0  0
    7.9110   25.0020    6.1680 O   0  0  0  0  0  0  0  0  0  0  0  0
  2  1  1  0
  6  1  1  0
 27  1  1  0
  3  2  1  0
  4  3  1  0
  5  4  1  0
  7  4  1  0
  6  5  1  0
  8  7  1  0
  9  8  2  0
 13  8  1  0
 10  9  1  0
 11 10  2  0
 12 11  1  0
 14 11  1  0
 13 12  2  0
 26 12  1  0
 15 14  2  0
 16 14  1  0
 17 16  2  0
 21 16  1  0
 18 17  1  0
 24 17  1  0
 19 18  2  0
 25 18  1  0
 20 19  1  0
 21 20  2  0
 22 21  1  0
 23 22  1  0
 28 27  1  0
 29 27  2  0
 30 27  2  0
A    1
N1
A    2
C2
A    3
C3
A    4
C4
A    5
C5
A    6
C6
A    7
N7
A    8
C8
A    9
N9
A   10
C10
A   11
C11
A   12
C12
A   13
N13
A   14
C14
A   15
O15
A   16
C16
A   17
C17
A   18
C18
A   19
C19
A   20
C20
A   21
C21
A   22
O22
A   23
C23
A   24
F24
A   25
F25
A   26
N26
A   27
S27
A   28
C28
A   29
O29
A   30
O30
M  END
>  <Id>  (20) 
2FVD_LIA_A_299

>  <ChainId>  (20) 
A

>  <AsymId>  (20) 
B

>  <SeqNum>  (20) 
299

>  <Name>  (20) 
(4-AMINO-2-{[1-(METHYLSULFONYL)PIPERIDIN-4-YL]AMINO}PYRIMIDIN-5-YL)(2,3-DIFLUORO-6-METHOXYPHENYL)METHANONE

>  <SystematicName>  (20) 
[4-amino-2-[(1-methylsulfonylpiperidin-4-yl)amino]pyrimidin-5-yl]-(2,3-difluoro-6-methoxy-phenyl)methanone

>  <Synonyms>  (20) 


>  <Type>  (20) 
NON-POLYMER

>  <Formula>  (20) 
C18 H21 F2 N5 O4 S

>  <ObservedFormula>  (20) 
C18 S F2 N5 O4

>  <MolecularWeight>  (20) 
441.452

>  <ModifiedDate>  (20) 
2011-06-04

>  <Parent>  (20) 


>  <OneLetterCode>  (20) 


>  <SubcomponentList>  (20) 


>  <AmbiguousFlag>  (20) 
N

>  <InsertionCode>  (20) 


>  <InstanceId>  (20) 
2FVD_LIA_A_299

>  <ChemCompId>  (20) 
LIA

>  <PdbId>  (20) 
2FVD

>  <ResidueNumber>  (20) 
299

>  <InChI>  (20) 
InChI=1S/C18H21F2N5O4S/c1-29-13-4-3-12(19)15(20)14(13)16(26)11-9-22-18(24-17(11)21)23-10-5-7-25(8-6-10)30(2,27)28/h3-4,9-10H,5-8H2,1-2H3,(H3,21,22,23,24)

>  <InChIKey>  (20) 
JRNJNYBQQYBCLE-UHFFFAOYSA-N

>  <SMILES>  (20) 
COc1ccc(c(c1C(=O)c2cnc(nc2N)NC3CCN(CC3)S(=O)(=O)C)F)F

>  <MissingHeavyAtoms>  (20) 
0

>  <Model>  (20) 
1

>  <AltIds>  (20) 


>  <pKI>  (20) 
8.52

>  <ChemblID>  (20) 
CHEMBL384304

>  <standardized_canonical_smiles>  (20) 
COc1ccc(F)c(F)c1C(=O)c1cnc(NC2CCN(S(C)(=O)=O)CC2)nc1N

$$$$
4EOL_1RO_C_301
     RDKit          3D

 24 27  0  0  0  0  0  0  0  0999 V2000
  -36.9640   12.9500   38.8270 O   0  0  0  0  0  0  0  0  0  0  0  0
  -36.9390   11.8310   39.4370 C   0  0  0  0  0  0  0  0  0  0  0  0
  -37.4470   11.7880   40.6600 N   0  0  0  0  0  0  0  0  0  0  0  0
  -37.3420   10.5500   41.1500 C   0  0  0  0  0  0  0  0  0  0  0  0
  -37.8100   10.3990   42.4040 N   0  0  0  0  0  0  0  0  0  0  0  0
  -38.1790   11.5840   43.1920 C   0  0  0  0  0  0  0  0  0  0  0  0
  -37.4020   12.8530   42.8470 C   0  0  0  0  0  0  0  0  0  0  0  0
  -37.7460   14.0600   42.2370 C   0  0  0  0  0  0  0  0  0  0  0  0
  -36.6780   14.9610   42.1120 C   0  0  0  0  0  0  0  0  0  0  0  0
  -35.4490   14.5270   42.6120 C   0  0  0  0  0  0  0  0  0  0  0  0
  -35.7150   12.9350   43.2420 S   0  0  0  0  0  0  0  0  0  0  0  0
  -36.6140    9.3580   40.0860 S   0  0  0  0  0  0  0  0  0  0  0  0
  -36.3950   10.5830   38.8570 C   0  0  0  0  0  0  0  0  0  0  0  0
  -35.7910   10.4190   37.5000 C   0  0  0  0  0  0  0  0  0  0  0  0
  -35.7210   11.6230   36.6190 C   0  0  0  0  0  0  0  0  0  0  0  0
  -35.8190   11.5340   35.2280 C   0  0  0  0  0  0  0  0  0  0  0  0
  -35.7580   12.6810   34.4220 C   0  0  0  0  0  0  0  0  0  0  0  0
  -35.5960   13.9420   34.9930 C   0  0  0  0  0  0  0  0  0  0  0  0
  -35.5340   15.0790   34.2610 N   0  0  0  0  0  0  0  0  0  0  0  0
  -35.3780   16.2840   34.8490 C   0  0  0  0  0  0  0  0  0  0  0  0
  -35.2720   16.4220   36.2380 C   0  0  0  0  0  0  0  0  0  0  0  0
  -35.3360   15.2950   37.0610 C   0  0  0  0  0  0  0  0  0  0  0  0
  -35.4940   14.0450   36.4690 C   0  0  0  0  0  0  0  0  0  0  0  0
  -35.5470   12.8780   37.2120 C   0  0  0  0  0  0  0  0  0  0  0  0
  2  1  2  0
  3  2  1  0
 13  2  1  0
  4  3  2  0
  5  4  1  0
 12  4  1  0
  6  5  1  0
  7  6  1  0
  8  7  2  0
 11  7  1  0
  9  8  1  0
 10  9  2  0
 11 10  1  0
 13 12  1  0
 14 13  2  0
 15 14  1  0
 16 15  2  0
 24 15  1  0
 17 16  1  0
 18 17  2  0
 19 18  1  0
 23 18  1  0
 20 19  2  0
 21 20  1  0
 22 21  2  0
 23 22  1  0
 24 23  2  0
A    1
O1
A    2
C13
A    3
N2
A    4
C15
A    5
N3
A    6
C18
A    7
C19
A    8
C23
A    9
C22
A   10
C21
A   11
S2
A   12
S1
A   13
C12
A   14
C11
A   15
C1
A   16
C6
A   17
C5
A   18
C4
A   19
N1
A   20
C9
A   21
C8
A   22
C7
A   23
C3
A   24
C2
M  END
>  <Id>  (21) 
4EOL_1RO_C_301

>  <ChainId>  (21) 
C

>  <AsymId>  (21) 
H

>  <SeqNum>  (21) 
301

>  <Name>  (21) 
(5E)-5-(quinolin-6-ylmethylidene)-2-[(thiophen-2-ylmethyl)amino]-1,3-thiazol-4(5H)-one

>  <SystematicName>  (21) 
(5E)-5-(quinolin-6-ylmethylidene)-2-(thiophen-2-ylmethylamino)-1,3-thiazol-4-one

>  <Synonyms>  (21) 


>  <Type>  (21) 
NON-POLYMER

>  <Formula>  (21) 
C18 H13 N3 O S2

>  <ObservedFormula>  (21) 
C18 S2 N3 O

>  <MolecularWeight>  (21) 
351.445

>  <ModifiedDate>  (21) 
2013-02-01

>  <Parent>  (21) 


>  <OneLetterCode>  (21) 


>  <SubcomponentList>  (21) 


>  <AmbiguousFlag>  (21) 
N

>  <InsertionCode>  (21) 


>  <InstanceId>  (21) 
4EOL_1RO_C_301

>  <ChemCompId>  (21) 
1RO

>  <PdbId>  (21) 
4EOL

>  <ResidueNumber>  (21) 
301

>  <InChI>  (21) 
InChI=1S/C18H13N3OS2/c22-17-16(24-18(21-17)20-11-14-4-2-8-23-14)10-12-5-6-15-13(9-12)3-1-7-19-15/h1-10H,11H2,(H,20,21,22)/b16-10+

>  <InChIKey>  (21) 
XOLMRFUGOINFDQ-MHWRWJLKSA-N

>  <SMILES>  (21) 
c1cc2cc(ccc2nc1)/C=C/3\C(=O)N=C(S3)NCc4cccs4

>  <MissingHeavyAtoms>  (21) 
0

>  <Model>  (21) 
1

>  <AltIds>  (21) 


>  <pKI>  (21) 
6.47

>  <ChemblID>  (21) 
CHEMBL393929

>  <standardized_canonical_smiles>  (21) 
O=C1N=C(NCc2cccs2)S/C1=C\c1ccc2ncccc2c1

$$$$
4EON_1RO_C_301
     RDKit          3D

 24 27  0  0  0  0  0  0  0  0999 V2000
  -10.3790  -24.4830   22.4690 O   0  0  0  0  0  0  0  0  0  0  0  0
  -10.3370  -23.4280   21.8860 C   0  0  0  0  0  0  0  0  0  0  0  0
   -9.3970  -23.3220   21.0210 N   0  0  0  0  0  0  0  0  0  0  0  0
   -9.5260  -22.1590   20.4890 C   0  0  0  0  0  0  0  0  0  0  0  0
   -8.5840  -21.9670   19.6100 N   0  0  0  0  0  0  0  0  0  0  0  0
   -7.6230  -23.0500   19.5890 C   0  0  0  0  0  0  0  0  0  0  0  0
   -7.0430  -23.3330   20.9500 C   0  0  0  0  0  0  0  0  0  0  0  0
   -6.4890  -22.5450   21.9170 C   0  0  0  0  0  0  0  0  0  0  0  0
   -6.0910  -23.2420   23.0020 C   0  0  0  0  0  0  0  0  0  0  0  0
   -6.2760  -24.5960   22.9750 C   0  0  0  0  0  0  0  0  0  0  0  0
   -6.9900  -24.9630   21.4650 S   0  0  0  0  0  0  0  0  0  0  0  0
  -10.8150  -21.1870   21.0340 S   0  0  0  0  0  0  0  0  0  0  0  0
  -11.2920  -22.4010   22.1160 C   0  0  0  0  0  0  0  0  0  0  0  0
  -12.3940  -22.4170   23.0880 C   0  0  0  0  0  0  0  0  0  0  0  0
  -12.6410  -23.6190   23.9040 C   0  0  0  0  0  0  0  0  0  0  0  0
  -13.9280  -23.9130   24.1910 C   0  0  0  0  0  0  0  0  0  0  0  0
  -14.2800  -25.0070   24.9080 C   0  0  0  0  0  0  0  0  0  0  0  0
  -13.3340  -25.8520   25.3720 C   0  0  0  0  0  0  0  0  0  0  0  0
  -13.6590  -26.9200   26.0840 N   0  0  0  0  0  0  0  0  0  0  0  0
  -12.7160  -27.7250   26.5140 C   0  0  0  0  0  0  0  0  0  0  0  0
  -11.3900  -27.4970   26.2560 C   0  0  0  0  0  0  0  0  0  0  0  0
  -10.9780  -26.4040   25.5350 C   0  0  0  0  0  0  0  0  0  0  0  0
  -11.9420  -25.5550   25.0780 C   0  0  0  0  0  0  0  0  0  0  0  0
  -11.6550  -24.4430   24.3660 C   0  0  0  0  0  0  0  0  0  0  0  0
  2  1  2  0
  3  2  1  0
 13  2  1  0
  4  3  2  0
  5  4  1  0
 12  4  1  0
  6  5  1  0
  7  6  1  0
  8  7  2  0
 11  7  1  0
  9  8  1  0
 10  9  2  0
 11 10  1  0
 13 12  1  0
 14 13  2  0
 15 14  1  0
 16 15  2  0
 24 15  1  0
 17 16  1  0
 18 17  2  0
 19 18  1  0
 23 18  1  0
 20 19  2  0
 21 20  1  0
 22 21  2  0
 23 22  1  0
 24 23  2  0
A    1
O1
A    2
C13
A    3
N2
A    4
C15
A    5
N3
A    6
C18
A    7
C19
A    8
C23
A    9
C22
A   10
C21
A   11
S2
A   12
S1
A   13
C12
A   14
C11
A   15
C1
A   16
C6
A   17
C5
A   18
C4
A   19
N1
A   20
C9
A   21
C8
A   22
C7
A   23
C3
A   24
C2
M  END
>  <Id>  (22) 
4EON_1RO_C_301

>  <ChainId>  (22) 
C

>  <AsymId>  (22) 
G

>  <SeqNum>  (22) 
301

>  <Name>  (22) 
(5E)-5-(quinolin-6-ylmethylidene)-2-[(thiophen-2-ylmethyl)amino]-1,3-thiazol-4(5H)-one

>  <SystematicName>  (22) 
(5E)-5-(quinolin-6-ylmethylidene)-2-(thiophen-2-ylmethylamino)-1,3-thiazol-4-one

>  <Synonyms>  (22) 


>  <Type>  (22) 
NON-POLYMER

>  <Formula>  (22) 
C18 H13 N3 O S2

>  <ObservedFormula>  (22) 
C18 S2 N3 O

>  <MolecularWeight>  (22) 
351.445

>  <ModifiedDate>  (22) 
2013-02-01

>  <Parent>  (22) 


>  <OneLetterCode>  (22) 


>  <SubcomponentList>  (22) 


>  <AmbiguousFlag>  (22) 
N

>  <InsertionCode>  (22) 


>  <InstanceId>  (22) 
4EON_1RO_C_301

>  <ChemCompId>  (22) 
1RO

>  <PdbId>  (22) 
4EON

>  <ResidueNumber>  (22) 
301

>  <InChI>  (22) 
InChI=1S/C18H13N3OS2/c22-17-16(24-18(21-17)20-11-14-4-2-8-23-14)10-12-5-6-15-13(9-12)3-1-7-19-15/h1-10H,11H2,(H,20,21,22)/b16-10+

>  <InChIKey>  (22) 
XOLMRFUGOINFDQ-MHWRWJLKSA-N

>  <SMILES>  (22) 
c1cc2cc(ccc2nc1)/C=C/3\C(=O)N=C(S3)NCc4cccs4

>  <MissingHeavyAtoms>  (22) 
0

>  <Model>  (22) 
1

>  <AltIds>  (22) 


>  <pKI>  (22) 
6.47

>  <ChemblID>  (22) 
CHEMBL393929

>  <standardized_canonical_smiles>  (22) 
O=C1N=C(NCc2cccs2)S/C1=C\c1ccc2ncccc2c1

$$$$
4EOP_1RO_C_301
     RDKit          3D

 24 27  0  0  0  0  0  0  0  0999 V2000
   36.0300  -15.7860   31.0370 O   0  0  0  0  0  0  0  0  0  0  0  0
   36.0930  -14.7530   31.7850 C   0  0  0  0  0  0  0  0  0  0  0  0
   36.8060  -14.8480   32.8970 N   0  0  0  0  0  0  0  0  0  0  0  0
   36.7720  -13.6840   33.5620 C   0  0  0  0  0  0  0  0  0  0  0  0
   37.4400  -13.6590   34.7280 N   0  0  0  0  0  0  0  0  0  0  0  0
   37.8170  -14.9320   35.3520 C   0  0  0  0  0  0  0  0  0  0  0  0
   36.9240  -16.1160   35.0070 C   0  0  0  0  0  0  0  0  0  0  0  0
   37.1040  -17.2860   34.2710 C   0  0  0  0  0  0  0  0  0  0  0  0
   35.9640  -18.1010   34.2270 C   0  0  0  0  0  0  0  0  0  0  0  0
   34.8470  -17.6290   34.9160 C   0  0  0  0  0  0  0  0  0  0  0  0
   35.3070  -16.1120   35.6130 S   0  0  0  0  0  0  0  0  0  0  0  0
   35.8530  -12.4030   32.8120 S   0  0  0  0  0  0  0  0  0  0  0  0
   35.4380  -13.4560   31.4860 C   0  0  0  0  0  0  0  0  0  0  0  0
   34.6010  -13.1240   30.3010 C   0  0  0  0  0  0  0  0  0  0  0  0
   34.3860  -14.2080   29.2970 C   0  0  0  0  0  0  0  0  0  0  0  0
   34.2670  -13.9490   27.9270 C   0  0  0  0  0  0  0  0  0  0  0  0
   34.0700  -14.9930   27.0120 C   0  0  0  0  0  0  0  0  0  0  0  0
   33.9850  -16.3180   27.4450 C   0  0  0  0  0  0  0  0  0  0  0  0
   33.7930  -17.3550   26.5950 N   0  0  0  0  0  0  0  0  0  0  0  0
   33.7160  -18.6200   27.0480 C   0  0  0  0  0  0  0  0  0  0  0  0
   33.8210  -18.9270   28.4080 C   0  0  0  0  0  0  0  0  0  0  0  0
   34.0200  -17.9130   29.3460 C   0  0  0  0  0  0  0  0  0  0  0  0
   34.1040  -16.5980   28.8950 C   0  0  0  0  0  0  0  0  0  0  0  0
   34.2890  -15.5270   29.7610 C   0  0  0  0  0  0  0  0  0  0  0  0
  2  1  2  0
  3  2  1  0
 13  2  1  0
  4  3  2  0
  5  4  1  0
 12  4  1  0
  6  5  1  0
  7  6  1  0
  8  7  2  0
 11  7  1  0
  9  8  1  0
 10  9  2  0
 11 10  1  0
 13 12  1  0
 14 13  2  0
 15 14  1  0
 16 15  2  0
 24 15  1  0
 17 16  1  0
 18 17  2  0
 19 18  1  0
 23 18  1  0
 20 19  2  0
 21 20  1  0
 22 21  2  0
 23 22  1  0
 24 23  2  0
A    1
O1
A    2
C13
A    3
N2
A    4
C15
A    5
N3
A    6
C18
A    7
C19
A    8
C23
A    9
C22
A   10
C21
A   11
S2
A   12
S1
A   13
C12
A   14
C11
A   15
C1
A   16
C6
A   17
C5
A   18
C4
A   19
N1
A   20
C9
A   21
C8
A   22
C7
A   23
C3
A   24
C2
M  END
>  <Id>  (23) 
4EOP_1RO_C_301

>  <ChainId>  (23) 
C

>  <AsymId>  (23) 
G

>  <SeqNum>  (23) 
301

>  <Name>  (23) 
(5E)-5-(quinolin-6-ylmethylidene)-2-[(thiophen-2-ylmethyl)amino]-1,3-thiazol-4(5H)-one

>  <SystematicName>  (23) 
(5E)-5-(quinolin-6-ylmethylidene)-2-(thiophen-2-ylmethylamino)-1,3-thiazol-4-one

>  <Synonyms>  (23) 


>  <Type>  (23) 
NON-POLYMER

>  <Formula>  (23) 
C18 H13 N3 O S2

>  <ObservedFormula>  (23) 
C18 S2 N3 O

>  <MolecularWeight>  (23) 
351.445

>  <ModifiedDate>  (23) 
2013-02-01

>  <Parent>  (23) 


>  <OneLetterCode>  (23) 


>  <SubcomponentList>  (23) 


>  <AmbiguousFlag>  (23) 
N

>  <InsertionCode>  (23) 


>  <InstanceId>  (23) 
4EOP_1RO_C_301

>  <ChemCompId>  (23) 
1RO

>  <PdbId>  (23) 
4EOP

>  <ResidueNumber>  (23) 
301

>  <InChI>  (23) 
InChI=1S/C18H13N3OS2/c22-17-16(24-18(21-17)20-11-14-4-2-8-23-14)10-12-5-6-15-13(9-12)3-1-7-19-15/h1-10H,11H2,(H,20,21,22)/b16-10+

>  <InChIKey>  (23) 
XOLMRFUGOINFDQ-MHWRWJLKSA-N

>  <SMILES>  (23) 
c1cc2cc(ccc2nc1)/C=C/3\C(=O)N=C(S3)NCc4cccs4

>  <MissingHeavyAtoms>  (23) 
0

>  <Model>  (23) 
1

>  <AltIds>  (23) 


>  <pKI>  (23) 
6.47

>  <ChemblID>  (23) 
CHEMBL393929

>  <standardized_canonical_smiles>  (23) 
O=C1N=C(NCc2cccs2)S/C1=C\c1ccc2ncccc2c1

$$$$
4EOS_1RO_C_301
     RDKit          3D

 24 27  0  0  0  0  0  0  0  0999 V2000
  -35.7270   15.6550   31.4010 O   0  0  0  0  0  0  0  0  0  0  0  0
  -35.7510   14.4900   31.9210 C   0  0  0  0  0  0  0  0  0  0  0  0
  -36.3590   14.3490   33.1000 N   0  0  0  0  0  0  0  0  0  0  0  0
  -36.2880   13.0620   33.4960 C   0  0  0  0  0  0  0  0  0  0  0  0
  -36.8420   12.7580   34.6890 N   0  0  0  0  0  0  0  0  0  0  0  0
  -36.6410   13.6760   35.8170 C   0  0  0  0  0  0  0  0  0  0  0  0
  -36.6370   15.1580   35.4430 C   0  0  0  0  0  0  0  0  0  0  0  0
  -37.5850   16.0330   34.9280 C   0  0  0  0  0  0  0  0  0  0  0  0
  -37.0930   17.3350   34.7290 C   0  0  0  0  0  0  0  0  0  0  0  0
  -35.7650   17.5720   35.0750 C   0  0  0  0  0  0  0  0  0  0  0  0
  -35.1680   16.0570   35.6540 S   0  0  0  0  0  0  0  0  0  0  0  0
  -35.4740   11.9640   32.3990 S   0  0  0  0  0  0  0  0  0  0  0  0
  -35.1600   13.2750   31.2950 C   0  0  0  0  0  0  0  0  0  0  0  0
  -34.4300   13.1410   30.0020 C   0  0  0  0  0  0  0  0  0  0  0  0
  -34.2240   14.3290   29.1280 C   0  0  0  0  0  0  0  0  0  0  0  0
  -34.0440   14.1820   27.7480 C   0  0  0  0  0  0  0  0  0  0  0  0
  -33.8580   15.2940   26.9200 C   0  0  0  0  0  0  0  0  0  0  0  0
  -33.8380   16.5790   27.4600 C   0  0  0  0  0  0  0  0  0  0  0  0
  -33.6580   17.6830   26.6980 N   0  0  0  0  0  0  0  0  0  0  0  0
  -33.6470   18.9100   27.2490 C   0  0  0  0  0  0  0  0  0  0  0  0
  -33.8160   19.1030   28.6230 C   0  0  0  0  0  0  0  0  0  0  0  0
  -34.0090   18.0140   29.4730 C   0  0  0  0  0  0  0  0  0  0  0  0
  -34.0230   16.7380   28.9220 C   0  0  0  0  0  0  0  0  0  0  0  0
  -34.1980   15.6040   29.6960 C   0  0  0  0  0  0  0  0  0  0  0  0
  2  1  2  0
  3  2  1  0
 13  2  1  0
  4  3  2  0
  5  4  1  0
 12  4  1  0
  6  5  1  0
  7  6  1  0
  8  7  2  0
 11  7  1  0
  9  8  1  0
 10  9  2  0
 11 10  1  0
 13 12  1  0
 14 13  2  0
 15 14  1  0
 16 15  2  0
 24 15  1  0
 17 16  1  0
 18 17  2  0
 19 18  1  0
 23 18  1  0
 20 19  2  0
 21 20  1  0
 22 21  2  0
 23 22  1  0
 24 23  2  0
A    1
O1
A    2
C13
A    3
N2
A    4
C15
A    5
N3
A    6
C18
A    7
C19
A    8
C23
A    9
C22
A   10
C21
A   11
S2
A   12
S1
A   13
C12
A   14
C11
A   15
C1
A   16
C6
A   17
C5
A   18
C4
A   19
N1
A   20
C9
A   21
C8
A   22
C7
A   23
C3
A   24
C2
M  END
>  <Id>  (24) 
4EOS_1RO_C_301

>  <ChainId>  (24) 
C

>  <AsymId>  (24) 
F

>  <SeqNum>  (24) 
301

>  <Name>  (24) 
(5E)-5-(quinolin-6-ylmethylidene)-2-[(thiophen-2-ylmethyl)amino]-1,3-thiazol-4(5H)-one

>  <SystematicName>  (24) 
(5E)-5-(quinolin-6-ylmethylidene)-2-(thiophen-2-ylmethylamino)-1,3-thiazol-4-one

>  <Synonyms>  (24) 


>  <Type>  (24) 
NON-POLYMER

>  <Formula>  (24) 
C18 H13 N3 O S2

>  <ObservedFormula>  (24) 
C18 S2 N3 O

>  <MolecularWeight>  (24) 
351.445

>  <ModifiedDate>  (24) 
2013-02-01

>  <Parent>  (24) 


>  <OneLetterCode>  (24) 


>  <SubcomponentList>  (24) 


>  <AmbiguousFlag>  (24) 
N

>  <InsertionCode>  (24) 


>  <InstanceId>  (24) 
4EOS_1RO_C_301

>  <ChemCompId>  (24) 
1RO

>  <PdbId>  (24) 
4EOS

>  <ResidueNumber>  (24) 
301

>  <InChI>  (24) 
InChI=1S/C18H13N3OS2/c22-17-16(24-18(21-17)20-11-14-4-2-8-23-14)10-12-5-6-15-13(9-12)3-1-7-19-15/h1-10H,11H2,(H,20,21,22)/b16-10+

>  <InChIKey>  (24) 
XOLMRFUGOINFDQ-MHWRWJLKSA-N

>  <SMILES>  (24) 
c1cc2cc(ccc2nc1)/C=C/3\C(=O)N=C(S3)NCc4cccs4

>  <MissingHeavyAtoms>  (24) 
0

>  <Model>  (24) 
1

>  <AltIds>  (24) 


>  <pKI>  (24) 
6.47

>  <ChemblID>  (24) 
CHEMBL393929

>  <standardized_canonical_smiles>  (24) 
O=C1N=C(NCc2cccs2)S/C1=C\c1ccc2ncccc2c1

$$$$
4EOI_1RO_C_301
     RDKit          3D

 24 27  0  0  0  0  0  0  0  0999 V2000
  -35.4490  -15.8240  -31.2750 O   0  0  0  0  0  0  0  0  0  0  0  0
  -35.4660  -14.6980  -31.8750 C   0  0  0  0  0  0  0  0  0  0  0  0
  -36.0800  -14.6620  -33.0440 N   0  0  0  0  0  0  0  0  0  0  0  0
  -36.0200  -13.4220  -33.5480 C   0  0  0  0  0  0  0  0  0  0  0  0
  -36.6010  -13.2580  -34.7480 N   0  0  0  0  0  0  0  0  0  0  0  0
  -37.2880  -14.3920  -35.3760 C   0  0  0  0  0  0  0  0  0  0  0  0
  -36.6490  -15.7600  -35.1850 C   0  0  0  0  0  0  0  0  0  0  0  0
  -37.0870  -16.9450  -34.5960 C   0  0  0  0  0  0  0  0  0  0  0  0
  -36.1430  -17.9820  -34.6430 C   0  0  0  0  0  0  0  0  0  0  0  0
  -34.9320  -17.6740  -35.2650 C   0  0  0  0  0  0  0  0  0  0  0  0
  -35.0430  -16.0230  -35.7770 S   0  0  0  0  0  0  0  0  0  0  0  0
  -35.1930  -12.2290  -32.5720 S   0  0  0  0  0  0  0  0  0  0  0  0
  -34.8650  -13.4350  -31.3670 C   0  0  0  0  0  0  0  0  0  0  0  0
  -34.1230  -13.1980  -30.1030 C   0  0  0  0  0  0  0  0  0  0  0  0
  -33.9420  -14.3550  -29.1910 C   0  0  0  0  0  0  0  0  0  0  0  0
  -33.8330  -14.1780  -27.8080 C   0  0  0  0  0  0  0  0  0  0  0  0
  -33.6770  -15.2810  -26.9630 C   0  0  0  0  0  0  0  0  0  0  0  0
  -33.6210  -16.5730  -27.4820 C   0  0  0  0  0  0  0  0  0  0  0  0
  -33.4640  -17.6590  -26.6950 N   0  0  0  0  0  0  0  0  0  0  0  0
  -33.4130  -18.8940  -27.2270 C   0  0  0  0  0  0  0  0  0  0  0  0
  -33.5140  -19.1190  -28.6040 C   0  0  0  0  0  0  0  0  0  0  0  0
  -33.6750  -18.0460  -29.4800 C   0  0  0  0  0  0  0  0  0  0  0  0
  -33.7280  -16.7620  -28.9470 C   0  0  0  0  0  0  0  0  0  0  0  0
  -33.8740  -15.6380  -29.7440 C   0  0  0  0  0  0  0  0  0  0  0  0
  2  1  2  0
  3  2  1  0
 13  2  1  0
  4  3  2  0
  5  4  1  0
 12  4  1  0
  6  5  1  0
  7  6  1  0
  8  7  2  0
 11  7  1  0
  9  8  1  0
 10  9  2  0
 11 10  1  0
 13 12  1  0
 14 13  2  0
 15 14  1  0
 16 15  2  0
 24 15  1  0
 17 16  1  0
 18 17  2  0
 19 18  1  0
 23 18  1  0
 20 19  2  0
 21 20  1  0
 22 21  2  0
 23 22  1  0
 24 23  2  0
A    1
O1
A    2
C13
A    3
N2
A    4
C15
A    5
N3
A    6
C18
A    7
C19
A    8
C23
A    9
C22
A   10
C21
A   11
S2
A   12
S1
A   13
C12
A   14
C11
A   15
C1
A   16
C6
A   17
C5
A   18
C4
A   19
N1
A   20
C9
A   21
C8
A   22
C7
A   23
C3
A   24
C2
M  END
>  <Id>  (25) 
4EOI_1RO_C_301

>  <ChainId>  (25) 
C

>  <AsymId>  (25) 
H

>  <SeqNum>  (25) 
301

>  <Name>  (25) 
(5E)-5-(quinolin-6-ylmethylidene)-2-[(thiophen-2-ylmethyl)amino]-1,3-thiazol-4(5H)-one

>  <SystematicName>  (25) 
(5E)-5-(quinolin-6-ylmethylidene)-2-(thiophen-2-ylmethylamino)-1,3-thiazol-4-one

>  <Synonyms>  (25) 


>  <Type>  (25) 
NON-POLYMER

>  <Formula>  (25) 
C18 H13 N3 O S2

>  <ObservedFormula>  (25) 
C18 S2 N3 O

>  <MolecularWeight>  (25) 
351.445

>  <ModifiedDate>  (25) 
2013-02-01

>  <Parent>  (25) 


>  <OneLetterCode>  (25) 


>  <SubcomponentList>  (25) 


>  <AmbiguousFlag>  (25) 
N

>  <InsertionCode>  (25) 


>  <InstanceId>  (25) 
4EOI_1RO_C_301

>  <ChemCompId>  (25) 
1RO

>  <PdbId>  (25) 
4EOI

>  <ResidueNumber>  (25) 
301

>  <InChI>  (25) 
InChI=1S/C18H13N3OS2/c22-17-16(24-18(21-17)20-11-14-4-2-8-23-14)10-12-5-6-15-13(9-12)3-1-7-19-15/h1-10H,11H2,(H,20,21,22)/b16-10+

>  <InChIKey>  (25) 
XOLMRFUGOINFDQ-MHWRWJLKSA-N

>  <SMILES>  (25) 
c1cc2cc(ccc2nc1)/C=C/3\C(=O)N=C(S3)NCc4cccs4

>  <MissingHeavyAtoms>  (25) 
0

>  <Model>  (25) 
1

>  <AltIds>  (25) 


>  <pKI>  (25) 
6.47

>  <ChemblID>  (25) 
CHEMBL393929

>  <standardized_canonical_smiles>  (25) 
O=C1N=C(NCc2cccs2)S/C1=C\c1ccc2ncccc2c1

$$$$
5D1J_56H_A_4000
     RDKit          3D

 25 27  0  0  0  0  0  0  0  0999 V2000
   23.9390   29.1800   28.8420 C   0  0  0  0  0  0  0  0  0  0  0  0
   25.2090   31.2470   28.7490 C   0  0  0  0  0  0  0  0  0  0  0  0
   22.6230   28.6020   29.2630 C   0  0  0  0  0  0  0  0  0  0  0  0
   22.7640   27.8860   30.6180 C   0  0  0  0  0  0  0  0  0  0  0  0
   22.0960   27.6270   28.1940 C   0  0  0  0  0  0  0  0  0  0  0  0
   21.4780   27.1700   30.9830 C   0  0  0  0  0  0  0  0  0  0  0  0
   20.8160   26.9570   28.6570 C   0  0  0  0  0  0  0  0  0  0  0  0
   27.8580   27.2070   25.9850 C   0  0  0  0  0  0  0  0  0  0  0  0
   28.5530   26.9030   23.6180 C   0  0  0  0  0  0  0  0  0  0  0  0
   29.4640   31.1860   25.2200 C   0  0  0  0  0  0  0  0  0  0  0  0
   28.4640   30.2590   25.2360 O   0  0  0  0  0  0  0  0  0  0  0  0
   30.6310   30.6670   24.7990 N   0  0  0  0  0  0  0  0  0  0  0  0
   29.0790   32.5230   25.6990 C   0  0  0  0  0  0  0  0  0  0  0  0
   29.0150   29.0800   24.7860 C   0  0  0  0  0  0  0  0  0  0  0  0
   30.3550   29.3460   24.5310 C   0  0  0  0  0  0  0  0  0  0  0  0
   28.9800   32.4080   27.4920 S   0  0  0  0  0  0  0  0  0  0  0  0
   28.0390   27.9160   24.6420 C   0  0  0  0  0  0  0  0  0  0  0  0
   27.2990   32.1840   27.9420 C   0  0  0  0  0  0  0  0  0  0  0  0
   26.6820   28.4330   24.1550 C   0  0  0  0  0  0  0  0  0  0  0  0
   26.6150   30.5810   27.9730 S   0  0  0  0  0  0  0  0  0  0  0  0
   26.4130   33.0580   28.4670 C   0  0  0  0  0  0  0  0  0  0  0  0
   25.2340   32.5380   28.9460 N   0  0  0  0  0  0  0  0  0  0  0  0
   24.1060   30.5060   29.1100 N   0  0  0  0  0  0  0  0  0  0  0  0
   24.7930   28.5090   28.2700 O   0  0  0  0  0  0  0  0  0  0  0  0
   21.1160   26.2300   29.9110 N   0  0  0  0  0  0  0  0  0  0  0  0
  3  1  1  0
 23  1  1  0
 24  1  2  0
 20  2  1  0
 22  2  2  0
 23  2  1  0
  4  3  1  0
  5  3  1  0
  6  4  1  0
  7  5  1  0
 25  6  1  0
 25  7  1  0
 17  8  1  0
 17  9  1  0
 11 10  1  0
 12 10  2  0
 13 10  1  0
 14 11  1  0
 15 12  1  0
 16 13  1  0
 15 14  2  0
 17 14  1  0
 18 16  1  0
 19 17  1  0
 20 18  1  0
 21 18  2  0
 22 21  1  0
A    1
C18
A    2
C15
A    3
C19
A    4
C21
A    5
C22
A    6
C23
A    7
C24
A    8
C11
A    9
C12
A   10
C1
A   11
O2
A   12
N3
A   13
C4
A   14
C5
A   15
C6
A   16
S7
A   17
C8
A   18
C9
A   19
C10
A   20
S13
A   21
C14
A   22
N16
A   23
N17
A   24
O20
A   25
N25
M  END
>  <Id>  (26) 
5D1J_56H_A_4000

>  <ChainId>  (26) 
A

>  <AsymId>  (26) 
B

>  <SeqNum>  (26) 
4000

>  <Name>  (26) 
N-(5-{[(5-tert-butyl-1,3-oxazol-2-yl)methyl]sulfanyl}-1,3-thiazol-2-yl)piperidine-4-carboxamide

>  <SystematicName>  (26) 
N-[5-[(5-tert-butyl-1,3-oxazol-2-yl)methylsulfanyl]-1,3-thiazol-2-yl]piperidine-4-carboxamide

>  <Synonyms>  (26) 


>  <Type>  (26) 
NON-POLYMER

>  <Formula>  (26) 
C17 H24 N4 O2 S2

>  <ObservedFormula>  (26) 
C17 S2 N4 O2

>  <MolecularWeight>  (26) 
380.528

>  <ModifiedDate>  (26) 
2015-08-07

>  <Parent>  (26) 


>  <OneLetterCode>  (26) 


>  <SubcomponentList>  (26) 


>  <AmbiguousFlag>  (26) 
N

>  <InsertionCode>  (26) 


>  <InstanceId>  (26) 
5D1J_56H_A_4000

>  <ChemCompId>  (26) 
56H

>  <PdbId>  (26) 
5D1J

>  <ResidueNumber>  (26) 
4000

>  <InChI>  (26) 
InChI=1S/C17H24N4O2S2/c1-17(2,3)12-8-19-13(23-12)10-24-14-9-20-16(25-14)21-15(22)11-4-6-18-7-5-11/h8-9,11,18H,4-7,10H2,1-3H3,(H,20,21,22)

>  <InChIKey>  (26) 
OUSFTKFNBAZUKL-UHFFFAOYSA-N

>  <SMILES>  (26) 
CC(C)(C)c1cnc(o1)CSc2cnc(s2)NC(=O)C3CCNCC3

>  <MissingHeavyAtoms>  (26) 
0

>  <Model>  (26) 
1

>  <AltIds>  (26) 


>  <pKI>  (26) 
7.42

>  <ChemblID>  (26) 
CHEMBL296468

>  <standardized_canonical_smiles>  (26) 
CC(C)(C)c1cnc(CSc2cnc(NC(=O)C3CCNCC3)s2)o1

$$$$
6GUC_SU9_C_301
     RDKit          3D

 18 20  0  0  0  0  0  0  0  0999 V2000
  -33.5530   19.8040   29.1300 N   0  0  0  0  0  0  0  0  0  0  0  0
  -33.2360   21.0800   29.3580 C   0  0  0  0  0  0  0  0  0  0  0  0
  -33.7200   21.4120   30.5520 N   0  0  0  0  0  0  0  0  0  0  0  0
  -34.3510   20.3110   31.0750 C   0  0  0  0  0  0  0  0  0  0  0  0
  -33.9400   19.1990   30.3170 C   0  0  0  0  0  0  0  0  0  0  0  0
  -33.8990   17.8920   30.7720 C   0  0  0  0  0  0  0  0  0  0  0  0
  -33.8090   16.7380   29.9970 C   0  0  0  0  0  0  0  0  0  0  0  0
  -33.3990   16.5930   28.5630 C   0  0  0  0  0  0  0  0  0  0  0  0
  -32.9860   17.4860   27.8100 O   0  0  0  0  0  0  0  0  0  0  0  0
  -33.5800   15.2840   28.2300 N   0  0  0  0  0  0  0  0  0  0  0  0
  -34.0400   14.5330   29.3150 C   0  0  0  0  0  0  0  0  0  0  0  0
  -34.3140   13.1750   29.3740 C   0  0  0  0  0  0  0  0  0  0  0  0
  -34.7910   12.6580   30.5770 C   0  0  0  0  0  0  0  0  0  0  0  0
  -34.9750   13.4830   31.7140 C   0  0  0  0  0  0  0  0  0  0  0  0
  -35.4280   12.7880   32.8190 O   0  0  0  0  0  0  0  0  0  0  0  0
  -35.5670   13.4520   34.0820 C   0  0  0  0  0  0  0  0  0  0  0  0
  -34.6600   14.8460   31.6480 C   0  0  0  0  0  0  0  0  0  0  0  0
  -34.2040   15.3800   30.4300 C   0  0  0  0  0  0  0  0  0  0  0  0
  2  1  1  0
  5  1  1  0
  3  2  2  0
  4  3  1  0
  5  4  2  0
  6  5  1  0
  7  6  2  0
  8  7  1  0
 18  7  1  0
  9  8  2  0
 10  8  1  0
 11 10  1  0
 12 11  1  0
 18 11  2  0
 13 12  2  0
 14 13  1  0
 15 14  1  0
 17 14  2  0
 16 15  1  0
 18 17  1  0
A    1
N5'
A    2
C4'
A    3
N3'
A    4
C2'
A    5
C1'
A    6
C6'
A    7
C9
A    8
C8
A    9
O10
A   10
N7
A   11
C5
A   12
C6
A   13
C1
A   14
C2
A   15
O11
A   16
C12
A   17
C3
A   18
C4
M  END
>  <Id>  (27) 
6GUC_SU9_C_301

>  <ChainId>  (27) 
C

>  <AsymId>  (27) 
F

>  <SeqNum>  (27) 
301

>  <Name>  (27) 
(3Z)-3-(1H-IMIDAZOL-5-YLMETHYLENE)-5-METHOXY-1H-INDOL-2(3H)-ONE

>  <SystematicName>  (27) 
(3Z)-3-(3H-imidazol-4-ylmethylidene)-5-methoxy-1H-indol-2-one

>  <Synonyms>  (27) 
SU9516

>  <Type>  (27) 
NON-POLYMER

>  <Formula>  (27) 
C13 H11 N3 O2

>  <ObservedFormula>  (27) 
C13 N3 O2

>  <MolecularWeight>  (27) 
241.245

>  <ModifiedDate>  (27) 
2011-06-04

>  <Parent>  (27) 


>  <OneLetterCode>  (27) 


>  <SubcomponentList>  (27) 


>  <AmbiguousFlag>  (27) 
N

>  <InsertionCode>  (27) 


>  <InstanceId>  (27) 
6GUC_SU9_C_301

>  <ChemCompId>  (27) 
SU9

>  <PdbId>  (27) 
6GUC

>  <ResidueNumber>  (27) 
301

>  <InChI>  (27) 
InChI=1S/C13H11N3O2/c1-18-9-2-3-12-10(5-9)11(13(17)16-12)4-8-6-14-7-15-8/h2-7H,1H3,(H,14,15)(H,16,17)/b11-4-

>  <InChIKey>  (27) 
QNUKRWAIZMBVCU-WCIBSUBMSA-N

>  <SMILES>  (27) 
COc1ccc2c(c1)/C(=C/c3cnc[nH]3)/C(=O)N2

>  <MissingHeavyAtoms>  (27) 
0

>  <Model>  (27) 
1

>  <AltIds>  (27) 


>  <pKI>  (27) 
7.3

>  <ChemblID>  (27) 
CHEMBL2002649

>  <standardized_canonical_smiles>  (27) 
COc1ccc2c(c1)C(=Cc1cnc[nH]1)C(=O)N2

$$$$
3PY0_SU9_A_301
     RDKit          3D

 18 20  0  0  0  0  0  0  0  0999 V2000
  -89.8660   82.2950   84.6310 N   0  0  0  0  0  0  0  0  0  0  0  0
  -88.8190   82.6620   83.9150 C   0  0  0  0  0  0  0  0  0  0  0  0
  -88.7660   81.9930   82.7400 N   0  0  0  0  0  0  0  0  0  0  0  0
  -89.8570   81.1500   82.7200 C   0  0  0  0  0  0  0  0  0  0  0  0
  -90.5300   81.3540   83.9130 C   0  0  0  0  0  0  0  0  0  0  0  0
  -91.7360   80.6270   84.2720 C   0  0  0  0  0  0  0  0  0  0  0  0
  -92.5100   80.7020   85.4120 C   0  0  0  0  0  0  0  0  0  0  0  0
  -92.3520   81.5810   86.6120 C   0  0  0  0  0  0  0  0  0  0  0  0
  -91.5040   82.4490   86.8480 O   0  0  0  0  0  0  0  0  0  0  0  0
  -93.3500   81.2880   87.5190 N   0  0  0  0  0  0  0  0  0  0  0  0
  -94.1610   80.2770   86.9960 C   0  0  0  0  0  0  0  0  0  0  0  0
  -95.2970   79.6550   87.5760 C   0  0  0  0  0  0  0  0  0  0  0  0
  -95.9440   78.6400   86.8200 C   0  0  0  0  0  0  0  0  0  0  0  0
  -95.5000   78.2250   85.5130 C   0  0  0  0  0  0  0  0  0  0  0  0
  -96.2200   77.2280   84.8840 O   0  0  0  0  0  0  0  0  0  0  0  0
  -95.5890   76.4120   83.8990 C   0  0  0  0  0  0  0  0  0  0  0  0
  -94.3440   78.8800   84.9680 C   0  0  0  0  0  0  0  0  0  0  0  0
  -93.6840   79.8950   85.7040 C   0  0  0  0  0  0  0  0  0  0  0  0
  2  1  1  0
  5  1  1  0
  3  2  2  0
  4  3  1  0
  5  4  2  0
  6  5  1  0
  7  6  2  0
  8  7  1  0
 18  7  1  0
  9  8  2  0
 10  8  1  0
 11 10  1  0
 12 11  1  0
 18 11  2  0
 13 12  2  0
 14 13  1  0
 15 14  1  0
 17 14  2  0
 16 15  1  0
 18 17  1  0
A    1
N5'
A    2
C4'
A    3
N3'
A    4
C2'
A    5
C1'
A    6
C6'
A    7
C9
A    8
C8
A    9
O10
A   10
N7
A   11
C5
A   12
C6
A   13
C1
A   14
C2
A   15
O11
A   16
C12
A   17
C3
A   18
C4
M  END
>  <Id>  (28) 
3PY0_SU9_A_301

>  <ChainId>  (28) 
A

>  <AsymId>  (28) 
D

>  <SeqNum>  (28) 
301

>  <Name>  (28) 
(3Z)-3-(1H-IMIDAZOL-5-YLMETHYLENE)-5-METHOXY-1H-INDOL-2(3H)-ONE

>  <SystematicName>  (28) 
(3Z)-3-(3H-imidazol-4-ylmethylidene)-5-methoxy-1H-indol-2-one

>  <Synonyms>  (28) 
SU9516

>  <Type>  (28) 
NON-POLYMER

>  <Formula>  (28) 
C13 H11 N3 O2

>  <ObservedFormula>  (28) 
C13 N3 O2

>  <MolecularWeight>  (28) 
241.245

>  <ModifiedDate>  (28) 
2011-06-04

>  <Parent>  (28) 


>  <OneLetterCode>  (28) 


>  <SubcomponentList>  (28) 


>  <AmbiguousFlag>  (28) 
N

>  <InsertionCode>  (28) 


>  <InstanceId>  (28) 
3PY0_SU9_A_301

>  <ChemCompId>  (28) 
SU9

>  <PdbId>  (28) 
3PY0

>  <ResidueNumber>  (28) 
301

>  <InChI>  (28) 
InChI=1S/C13H11N3O2/c1-18-9-2-3-12-10(5-9)11(13(17)16-12)4-8-6-14-7-15-8/h2-7H,1H3,(H,14,15)(H,16,17)/b11-4-

>  <InChIKey>  (28) 
QNUKRWAIZMBVCU-WCIBSUBMSA-N

>  <SMILES>  (28) 
COc1ccc2c(c1)/C(=C/c3cnc[nH]3)/C(=O)N2

>  <MissingHeavyAtoms>  (28) 
0

>  <Model>  (28) 
1

>  <AltIds>  (28) 


>  <pKI>  (28) 
7.3

>  <ChemblID>  (28) 
CHEMBL2002649

>  <standardized_canonical_smiles>  (28) 
COc1ccc2c(c1)C(=Cc1cnc[nH]1)C(=O)N2

$$$$
1PF8_SU9_A_500
     RDKit          3D

 18 20  0  0  0  0  0  0  0  0999 V2000
    3.9010   30.3180    7.2150 N   0  0  0  0  0  0  0  0  0  0  0  0
    5.0560   29.6930    6.6410 C   0  0  0  0  0  0  0  0  0  0  0  0
    5.1700   28.2990    7.2690 N   0  0  0  0  0  0  0  0  0  0  0  0
    4.1160   28.2410    8.3880 C   0  0  0  0  0  0  0  0  0  0  0  0
    3.2290   29.4650    8.1890 C   0  0  0  0  0  0  0  0  0  0  0  0
    2.3110   29.6900    8.8500 C   0  0  0  0  0  0  0  0  0  0  0  0
    1.5050   30.8550    8.6340 C   0  0  0  0  0  0  0  0  0  0  0  0
    1.6200   31.9830    7.7530 C   0  0  0  0  0  0  0  0  0  0  0  0
    2.4970   32.1600    6.9410 O   0  0  0  0  0  0  0  0  0  0  0  0
    0.6670   32.8760    7.8810 N   0  0  0  0  0  0  0  0  0  0  0  0
   -0.1540   32.3890    8.8880 C   0  0  0  0  0  0  0  0  0  0  0  0
   -1.3500   32.9570    9.4550 C   0  0  0  0  0  0  0  0  0  0  0  0
   -2.0130   32.2650   10.4960 C   0  0  0  0  0  0  0  0  0  0  0  0
   -1.5600   31.0620   10.9950 C   0  0  0  0  0  0  0  0  0  0  0  0
   -2.1500   30.4340   11.9360 O   0  0  0  0  0  0  0  0  0  0  0  0
   -1.7770   29.3650   12.4060 C   0  0  0  0  0  0  0  0  0  0  0  0
   -0.2420   30.4020   10.3910 C   0  0  0  0  0  0  0  0  0  0  0  0
    0.3260   31.1690    9.3710 C   0  0  0  0  0  0  0  0  0  0  0  0
  2  1  1  0
  5  1  1  0
  3  2  2  0
  4  3  1  0
  5  4  2  0
  6  5  1  0
  7  6  2  0
  8  7  1  0
 18  7  1  0
  9  8  2  0
 10  8  1  0
 11 10  1  0
 12 11  1  0
 18 11  2  0
 13 12  2  0
 14 13  1  0
 15 14  1  0
 17 14  2  0
 16 15  1  0
 18 17  1  0
A    1
N5'
A    2
C4'
A    3
N3'
A    4
C2'
A    5
C1'
A    6
C6'
A    7
C9
A    8
C8
A    9
O10
A   10
N7
A   11
C5
A   12
C6
A   13
C1
A   14
C2
A   15
O11
A   16
C12
A   17
C3
A   18
C4
M  END
>  <Id>  (29) 
1PF8_SU9_A_500

>  <ChainId>  (29) 
A

>  <AsymId>  (29) 
B

>  <SeqNum>  (29) 
500

>  <Name>  (29) 
(3Z)-3-(1H-IMIDAZOL-5-YLMETHYLENE)-5-METHOXY-1H-INDOL-2(3H)-ONE

>  <SystematicName>  (29) 
(3Z)-3-(3H-imidazol-4-ylmethylidene)-5-methoxy-1H-indol-2-one

>  <Synonyms>  (29) 
SU9516

>  <Type>  (29) 
NON-POLYMER

>  <Formula>  (29) 
C13 H11 N3 O2

>  <ObservedFormula>  (29) 
C13 N3 O2

>  <MolecularWeight>  (29) 
241.245

>  <ModifiedDate>  (29) 
2011-06-04

>  <Parent>  (29) 


>  <OneLetterCode>  (29) 


>  <SubcomponentList>  (29) 


>  <AmbiguousFlag>  (29) 
N

>  <InsertionCode>  (29) 


>  <InstanceId>  (29) 
1PF8_SU9_A_500

>  <ChemCompId>  (29) 
SU9

>  <PdbId>  (29) 
1PF8

>  <ResidueNumber>  (29) 
500

>  <InChI>  (29) 
InChI=1S/C13H11N3O2/c1-18-9-2-3-12-10(5-9)11(13(17)16-12)4-8-6-14-7-15-8/h2-7H,1H3,(H,14,15)(H,16,17)/b11-4-

>  <InChIKey>  (29) 
QNUKRWAIZMBVCU-WCIBSUBMSA-N

>  <SMILES>  (29) 
COc1ccc2c(c1)/C(=C/c3cnc[nH]3)/C(=O)N2

>  <MissingHeavyAtoms>  (29) 
0

>  <Model>  (29) 
1

>  <AltIds>  (29) 


>  <pKI>  (29) 
7.3

>  <ChemblID>  (29) 
CHEMBL2002649

>  <standardized_canonical_smiles>  (29) 
COc1ccc2c(c1)C(=Cc1cnc[nH]1)C(=O)N2

$$$$
3PY1_SU9_A_300
     RDKit          3D

 18 20  0  0  0  0  0  0  0  0999 V2000
  -75.3620  -97.6910   29.6820 N   0  0  0  0  0  0  0  0  0  0  0  0
  -74.2540  -96.9760   29.7320 C   0  0  0  0  0  0  0  0  0  0  0  0
  -74.3340  -95.8890   28.9310 N   0  0  0  0  0  0  0  0  0  0  0  0
  -75.5800  -95.9280   28.3340 C   0  0  0  0  0  0  0  0  0  0  0  0
  -76.1990  -97.0590   28.8180 C   0  0  0  0  0  0  0  0  0  0  0  0
  -77.5510  -97.4300   28.3990 C   0  0  0  0  0  0  0  0  0  0  0  0
  -78.3200  -98.5040   28.7670 C   0  0  0  0  0  0  0  0  0  0  0  0
  -78.0230  -99.5640   29.6760 C   0  0  0  0  0  0  0  0  0  0  0  0
  -77.0040  -99.7570   30.3470 O   0  0  0  0  0  0  0  0  0  0  0  0
  -79.0880 -100.4410   29.7370 N   0  0  0  0  0  0  0  0  0  0  0  0
  -80.0970  -99.9890   28.8850 C   0  0  0  0  0  0  0  0  0  0  0  0
  -81.3820 -100.5480   28.5950 C   0  0  0  0  0  0  0  0  0  0  0  0
  -82.2170  -99.8460   27.6640 C   0  0  0  0  0  0  0  0  0  0  0  0
  -81.8140  -98.6180   27.0200 C   0  0  0  0  0  0  0  0  0  0  0  0
  -82.7100  -98.0280   26.1480 O   0  0  0  0  0  0  0  0  0  0  0  0
  -82.3610  -96.8200   25.4930 C   0  0  0  0  0  0  0  0  0  0  0  0
  -80.5110  -98.1100   27.3460 C   0  0  0  0  0  0  0  0  0  0  0  0
  -79.6690  -98.7930   28.2680 C   0  0  0  0  0  0  0  0  0  0  0  0
  2  1  1  0
  5  1  1  0
  3  2  2  0
  4  3  1  0
  5  4  2  0
  6  5  1  0
  7  6  2  0
  8  7  1  0
 18  7  1  0
  9  8  2  0
 10  8  1  0
 11 10  1  0
 12 11  1  0
 18 11  2  0
 13 12  2  0
 14 13  1  0
 15 14  1  0
 17 14  2  0
 16 15  1  0
 18 17  1  0
A    1
N5'
A    2
C4'
A    3
N3'
A    4
C2'
A    5
C1'
A    6
C6'
A    7
C9
A    8
C8
A    9
O10
A   10
N7
A   11
C5
A   12
C6
A   13
C1
A   14
C2
A   15
O11
A   16
C12
A   17
C3
A   18
C4
M  END
>  <Id>  (30) 
3PY1_SU9_A_300

>  <ChainId>  (30) 
A

>  <AsymId>  (30) 
C

>  <SeqNum>  (30) 
300

>  <Name>  (30) 
(3Z)-3-(1H-IMIDAZOL-5-YLMETHYLENE)-5-METHOXY-1H-INDOL-2(3H)-ONE

>  <SystematicName>  (30) 
(3Z)-3-(3H-imidazol-4-ylmethylidene)-5-methoxy-1H-indol-2-one

>  <Synonyms>  (30) 
SU9516

>  <Type>  (30) 
NON-POLYMER

>  <Formula>  (30) 
C13 H11 N3 O2

>  <ObservedFormula>  (30) 
C13 N3 O2

>  <MolecularWeight>  (30) 
241.245

>  <ModifiedDate>  (30) 
2011-06-04

>  <Parent>  (30) 


>  <OneLetterCode>  (30) 


>  <SubcomponentList>  (30) 


>  <AmbiguousFlag>  (30) 
N

>  <InsertionCode>  (30) 


>  <InstanceId>  (30) 
3PY1_SU9_A_300

>  <ChemCompId>  (30) 
SU9

>  <PdbId>  (30) 
3PY1

>  <ResidueNumber>  (30) 
300

>  <InChI>  (30) 
InChI=1S/C13H11N3O2/c1-18-9-2-3-12-10(5-9)11(13(17)16-12)4-8-6-14-7-15-8/h2-7H,1H3,(H,14,15)(H,16,17)/b11-4-

>  <InChIKey>  (30) 
QNUKRWAIZMBVCU-WCIBSUBMSA-N

>  <SMILES>  (30) 
COc1ccc2c(c1)/C(=C/c3cnc[nH]3)/C(=O)N2

>  <MissingHeavyAtoms>  (30) 
0

>  <Model>  (30) 
1

>  <AltIds>  (30) 


>  <pKI>  (30) 
7.3

>  <ChemblID>  (30) 
CHEMBL2002649

>  <standardized_canonical_smiles>  (30) 
COc1ccc2c(c1)C(=Cc1cnc[nH]1)C(=O)N2

$$$$
3DDQ_RRC_C_299
     RDKit          3D

 26 28  0  0  0  0  0  0  0  0999 V2000
  -34.3270   17.8530   35.2940 O   0  0  0  0  0  0  0  0  0  0  0  0
  -33.8910   16.6360   34.6780 C   0  0  0  0  0  0  0  0  0  0  0  0
  -34.7150   16.3620   33.4250 C   0  0  0  0  0  0  0  0  0  0  0  0
  -36.2080   16.2620   33.7610 C   0  0  0  0  0  0  0  0  0  0  0  0
  -37.0790   15.7250   32.6290 C   0  0  0  0  0  0  0  0  0  0  0  0
  -34.5710   17.5490   32.5920 N   0  0  0  0  0  0  0  0  0  0  0  0
  -34.1710   17.4670   31.3090 C   0  0  0  0  0  0  0  0  0  0  0  0
  -33.8630   16.2650   30.7640 N   0  0  0  0  0  0  0  0  0  0  0  0
  -33.4630   16.2320   29.4730 C   0  0  0  0  0  0  0  0  0  0  0  0
  -33.1080   15.2070   28.7460 N   0  0  0  0  0  0  0  0  0  0  0  0
  -33.2530   13.9370   29.4580 C   0  0  0  0  0  0  0  0  0  0  0  0
  -34.5220   13.1660   29.0410 C   0  0  0  0  0  0  0  0  0  0  0  0
  -32.0520   13.2140   30.1060 C   0  0  0  0  0  0  0  0  0  0  0  0
  -32.8010   15.6150   27.5020 C   0  0  0  0  0  0  0  0  0  0  0  0
  -33.3510   17.3690   28.7000 C   0  0  0  0  0  0  0  0  0  0  0  0
  -32.9300   16.9750   27.4770 N   0  0  0  0  0  0  0  0  0  0  0  0
  -34.0770   18.6010   30.5770 N   0  0  0  0  0  0  0  0  0  0  0  0
  -33.6780   18.5840   29.2880 C   0  0  0  0  0  0  0  0  0  0  0  0
  -33.5770   19.7200   28.5660 N   0  0  0  0  0  0  0  0  0  0  0  0
  -33.9320   21.0170   29.1270 C   0  0  0  0  0  0  0  0  0  0  0  0
  -32.7830   21.7730   29.7180 C   0  0  0  0  0  0  0  0  0  0  0  0
  -32.8560   22.1790   31.0530 C   0  0  0  0  0  0  0  0  0  0  0  0
  -31.8030   22.8960   31.6230 C   0  0  0  0  0  0  0  0  0  0  0  0
  -30.6940   23.2080   30.8370 C   0  0  0  0  0  0  0  0  0  0  0  0
  -30.6350   22.8100   29.4990 C   0  0  0  0  0  0  0  0  0  0  0  0
  -31.6830   22.0860   28.9350 C   0  0  0  0  0  0  0  0  0  0  0  0
  2  1  1  0
  3  2  1  0
  4  3  1  0
  6  3  1  0
  5  4  1  0
  7  6  1  0
  8  7  2  0
 17  7  1  0
  9  8  1  0
 10  9  1  0
 15  9  2  0
 11 10  1  0
 14 10  1  0
 12 11  1  0
 13 11  1  0
 16 14  2  0
 16 15  1  0
 18 15  1  0
 18 17  2  0
 19 18  1  0
 20 19  1  0
 21 20  1  0
 22 21  2  0
 26 21  1  0
 23 22  1  0
 24 23  2  0
 25 24  1  0
 26 25  2  0
A    1
OAP
A    2
CAQ
A    3
CAR
A    4
CAK
A    5
CAI
A    6
NAS
A    7
CAT
A    8
NAU
A    9
CAV
A   10
NAW
A   11
CAZ
A   12
CAY
A   13
CBA
A   14
CAX
A   15
CAN
A   16
NAO
A   17
NAL
A   18
CAM
A   19
NAJ
A   20
CAD
A   21
CAE
A   22
CAG
A   23
CAH
A   24
CAF
A   25
CAC
A   26
CAB
M  END
>  <Id>  (31) 
3DDQ_RRC_C_299

>  <ChainId>  (31) 
C

>  <AsymId>  (31) 
H

>  <SeqNum>  (31) 
299

>  <Name>  (31) 
R-ROSCOVITINE

>  <SystematicName>  (31) 
(2R)-2-[[6-(phenylmethylamino)-9-propan-2-yl-purin-2-yl]amino]butan-1-ol

>  <Synonyms>  (31) 


>  <Type>  (31) 
NON-POLYMER

>  <Formula>  (31) 
C19 H26 N6 O

>  <ObservedFormula>  (31) 
C19 N6 O

>  <MolecularWeight>  (31) 
354.449

>  <ModifiedDate>  (31) 
2011-06-04

>  <Parent>  (31) 


>  <OneLetterCode>  (31) 


>  <SubcomponentList>  (31) 


>  <AmbiguousFlag>  (31) 
N

>  <InsertionCode>  (31) 


>  <InstanceId>  (31) 
3DDQ_RRC_C_299

>  <ChemCompId>  (31) 
RRC

>  <PdbId>  (31) 
3DDQ

>  <ResidueNumber>  (31) 
299

>  <InChI>  (31) 
InChI=1S/C19H26N6O/c1-4-15(11-26)22-19-23-17(20-10-14-8-6-5-7-9-14)16-18(24-19)25(12-21-16)13(2)3/h5-9,12-13,15,26H,4,10-11H2,1-3H3,(H2,20,22,23,24)/t15-/m1/s1

>  <InChIKey>  (31) 
BTIHMVBBUGXLCJ-OAHLLOKOSA-N

>  <SMILES>  (31) 
CC[C@H](CO)Nc1nc(c2c(n1)n(cn2)C(C)C)NCc3ccccc3

>  <MissingHeavyAtoms>  (31) 
0

>  <Model>  (31) 
1

>  <AltIds>  (31) 


>  <pKI>  (31) 
6.7

>  <ChemblID>  (31) 
CHEMBL52387

>  <standardized_canonical_smiles>  (31) 
CCC(CO)Nc1nc(NCc2ccccc2)c2ncn(C(C)C)c2n1

$$$$
2A4L_RRC_A_300
     RDKit          3D

 26 28  0  0  0  0  0  0  0  0999 V2000
   96.9410   98.3980   81.7010 O   0  0  0  0  0  0  0  0  0  0  0  0
   97.8200   99.3160   82.3990 C   0  0  0  0  0  0  0  0  0  0  0  0
   99.3030   99.0600   82.1250 C   0  0  0  0  0  0  0  0  0  0  0  0
   99.5800   97.5390   82.1130 C   0  0  0  0  0  0  0  0  0  0  0  0
  100.8690   97.0700   82.8130 C   0  0  0  0  0  0  0  0  0  0  0  0
   99.6890   99.6750   80.7710 N   0  0  0  0  0  0  0  0  0  0  0  0
  100.6050  100.5790   80.3970 C   0  0  0  0  0  0  0  0  0  0  0  0
  101.5800  100.7310   81.2850 N   0  0  0  0  0  0  0  0  0  0  0  0
  102.5660  101.6080   81.0000 C   0  0  0  0  0  0  0  0  0  0  0  0
  103.6710  101.8700   81.7690 N   0  0  0  0  0  0  0  0  0  0  0  0
  103.9420  101.2080   83.0530 C   0  0  0  0  0  0  0  0  0  0  0  0
  104.1430   99.6920   82.8200 C   0  0  0  0  0  0  0  0  0  0  0  0
  102.7500  101.4540   84.0120 C   0  0  0  0  0  0  0  0  0  0  0  0
  104.3850  102.7950   81.0530 C   0  0  0  0  0  0  0  0  0  0  0  0
  102.6270  102.3520   79.8510 C   0  0  0  0  0  0  0  0  0  0  0  0
  103.7980  103.0970   79.9180 N   0  0  0  0  0  0  0  0  0  0  0  0
  100.6130  101.2930   79.2400 N   0  0  0  0  0  0  0  0  0  0  0  0
  101.5820  102.1980   78.8950 C   0  0  0  0  0  0  0  0  0  0  0  0
  101.4790  102.7930   77.7210 N   0  0  0  0  0  0  0  0  0  0  0  0
  100.2390  102.4850   76.9830 C   0  0  0  0  0  0  0  0  0  0  0  0
   99.6080  103.8320   76.5810 C   0  0  0  0  0  0  0  0  0  0  0  0
  100.4390  104.8910   76.2360 C   0  0  0  0  0  0  0  0  0  0  0  0
   99.8830  106.1120   75.8700 C   0  0  0  0  0  0  0  0  0  0  0  0
   98.4980  106.2290   75.8640 C   0  0  0  0  0  0  0  0  0  0  0  0
   97.6480  105.1730   76.1880 C   0  0  0  0  0  0  0  0  0  0  0  0
   98.2240  103.9610   76.5500 C   0  0  0  0  0  0  0  0  0  0  0  0
  2  1  1  0
  3  2  1  0
  4  3  1  0
  6  3  1  0
  5  4  1  0
  7  6  1  0
  8  7  2  0
 17  7  1  0
  9  8  1  0
 10  9  1  0
 15  9  2  0
 11 10  1  0
 14 10  1  0
 12 11  1  0
 13 11  1  0
 16 14  2  0
 16 15  1  0
 18 15  1  0
 18 17  2  0
 19 18  1  0
 20 19  1  0
 21 20  1  0
 22 21  2  0
 26 21  1  0
 23 22  1  0
 24 23  2  0
 25 24  1  0
 26 25  2  0
A    1
OAP
A    2
CAQ
A    3
CAR
A    4
CAK
A    5
CAI
A    6
NAS
A    7
CAT
A    8
NAU
A    9
CAV
A   10
NAW
A   11
CAZ
A   12
CAY
A   13
CBA
A   14
CAX
A   15
CAN
A   16
NAO
A   17
NAL
A   18
CAM
A   19
NAJ
A   20
CAD
A   21
CAE
A   22
CAG
A   23
CAH
A   24
CAF
A   25
CAC
A   26
CAB
M  END
>  <Id>  (32) 
2A4L_RRC_A_300

>  <ChainId>  (32) 
A

>  <AsymId>  (32) 
B

>  <SeqNum>  (32) 
300

>  <Name>  (32) 
R-ROSCOVITINE

>  <SystematicName>  (32) 
(2R)-2-[[6-(phenylmethylamino)-9-propan-2-yl-purin-2-yl]amino]butan-1-ol

>  <Synonyms>  (32) 


>  <Type>  (32) 
NON-POLYMER

>  <Formula>  (32) 
C19 H26 N6 O

>  <ObservedFormula>  (32) 
C19 N6 O

>  <MolecularWeight>  (32) 
354.449

>  <ModifiedDate>  (32) 
2011-06-04

>  <Parent>  (32) 


>  <OneLetterCode>  (32) 


>  <SubcomponentList>  (32) 


>  <AmbiguousFlag>  (32) 
N

>  <InsertionCode>  (32) 


>  <InstanceId>  (32) 
2A4L_RRC_A_300

>  <ChemCompId>  (32) 
RRC

>  <PdbId>  (32) 
2A4L

>  <ResidueNumber>  (32) 
300

>  <InChI>  (32) 
InChI=1S/C19H26N6O/c1-4-15(11-26)22-19-23-17(20-10-14-8-6-5-7-9-14)16-18(24-19)25(12-21-16)13(2)3/h5-9,12-13,15,26H,4,10-11H2,1-3H3,(H2,20,22,23,24)/t15-/m1/s1

>  <InChIKey>  (32) 
BTIHMVBBUGXLCJ-OAHLLOKOSA-N

>  <SMILES>  (32) 
CC[C@H](CO)Nc1nc(c2c(n1)n(cn2)C(C)C)NCc3ccccc3

>  <MissingHeavyAtoms>  (32) 
0

>  <Model>  (32) 
1

>  <AltIds>  (32) 


>  <pKI>  (32) 
6.7

>  <ChemblID>  (32) 
CHEMBL52387

>  <standardized_canonical_smiles>  (32) 
CCC(CO)Nc1nc(NCc2ccccc2)c2ncn(C(C)C)c2n1

$$$$
4NJ3_2KD_A_301
     RDKit          3D

 36 39  0  0  0  0  0  0  0  0999 V2000
   -3.8170   32.4050   12.3680 N   0  0  0  0  0  0  0  0  0  0  0  0
   -4.5550   31.2920   12.4300 C   0  0  0  0  0  0  0  0  0  0  0  0
   -5.7630   31.2880   13.1290 C   0  0  0  0  0  0  0  0  0  0  0  0
   -6.2020   32.4490   13.7750 C   0  0  0  0  0  0  0  0  0  0  0  0
   -5.4080   33.6150   13.6870 C   0  0  0  0  0  0  0  0  0  0  0  0
   -4.2050   33.5480   12.9520 C   0  0  0  0  0  0  0  0  0  0  0  0
   -5.7640   34.8420   14.2700 C   0  0  0  0  0  0  0  0  0  0  0  0
   -4.9420   35.9900   14.1380 C   0  0  0  0  0  0  0  0  0  0  0  0
   -3.7370   35.8790   13.4200 C   0  0  0  0  0  0  0  0  0  0  0  0
   -3.3830   34.6770   12.8340 C   0  0  0  0  0  0  0  0  0  0  0  0
   -4.0220   30.0540   11.7790 C   0  0  0  0  0  0  0  0  0  0  0  0
   -7.5260   32.3920   14.5090 C   0  0  0  0  0  0  0  0  0  0  0  0
   -5.3150   37.2960   14.7440 C   0  0  0  0  0  0  0  0  0  0  0  0
   -4.8140   29.1960   11.4040 O   0  0  0  0  0  0  0  0  0  0  0  0
   -2.6870   29.9530   11.6380 N   0  0  0  0  0  0  0  0  0  0  0  0
   -2.0560   28.8000   11.0320 C   0  0  0  0  0  0  0  0  0  0  0  0
   -2.1320   28.9050    9.4720 C   0  0  0  0  0  0  0  0  0  0  0  0
   -1.2490   30.0780    8.9610 C   0  0  0  0  0  0  0  0  0  0  0  0
   -0.6160   28.7390   11.4830 C   0  0  0  0  0  0  0  0  0  0  0  0
   -0.1650   29.5720   12.2610 O   0  0  0  0  0  0  0  0  0  0  0  0
    0.0940   27.7150   10.9900 O   0  0  0  0  0  0  0  0  0  0  0  0
    1.4690   27.6560   11.4390 C   0  0  0  0  0  0  0  0  0  0  0  0
   -8.5390   31.9560   13.9000 O   0  0  0  0  0  0  0  0  0  0  0  0
   -7.6050   32.8010   15.6990 O   0  0  0  0  0  0  0  0  0  0  0  0
   -5.9130   37.3470   16.0130 C   0  0  0  0  0  0  0  0  0  0  0  0
   -6.2530   38.5830   16.5920 C   0  0  0  0  0  0  0  0  0  0  0  0
   -5.9900   39.7810   15.9070 C   0  0  0  0  0  0  0  0  0  0  0  0
   -5.3900   39.7360   14.6530 C   0  0  0  0  0  0  0  0  0  0  0  0
   -5.0530   38.5010   14.0740 C   0  0  0  0  0  0  0  0  0  0  0  0
   -1.7300   31.4050    9.0220 C   0  0  0  0  0  0  0  0  0  0  0  0
   -0.9190   32.4740    8.5800 C   0  0  0  0  0  0  0  0  0  0  0  0
    0.3300   32.2190    7.9860 C   0  0  0  0  0  0  0  0  0  0  0  0
    0.7630   30.8880    7.8280 C   0  0  0  0  0  0  0  0  0  0  0  0
    0.0140   29.8290    8.3710 C   0  0  0  0  0  0  0  0  0  0  0  0
   -6.9790   38.6250   18.1800 Cl  0  0  0  0  0  0  0  0  0  0  0  0
    1.1370   33.2990    7.5910 O   0  0  0  0  0  0  0  0  0  0  0  0
  2  1  2  0
  6  1  1  0
  3  2  1  0
 11  2  1  0
  4  3  2  0
  5  4  1  0
 12  4  1  0
  6  5  2  0
  7  5  1  0
 10  6  1  0
  8  7  2  0
  9  8  1  0
 13  8  1  0
 10  9  2  0
 14 11  2  0
 15 11  1  0
 23 12  2  0
 24 12  1  0
 25 13  2  0
 29 13  1  0
 16 15  1  0
 17 16  1  0
 19 16  1  0
 18 17  1  0
 30 18  2  0
 34 18  1  0
 20 19  2  0
 21 19  1  0
 22 21  1  0
 26 25  1  0
 27 26  2  0
 35 26  1  0
 28 27  1  0
 29 28  2  0
 31 30  1  0
 32 31  2  0
 33 32  1  0
 36 32  1  0
 34 33  2  0
A    1
N01
A    2
C02
A    3
C03
A    4
C04
A    5
C05
A    6
C06
A    7
C07
A    8
C08
A    9
C09
A   10
C10
A   11
C11
A   12
C12
A   13
C13
A   14
O14
A   15
N15
A   16
C16
A   17
C17
A   18
C18
A   19
C19
A   20
O20
A   21
O21
A   22
C22
A   23
O23
A   24
O24
A   25
C25
A   26
C26
A   27
C27
A   28
C28
A   29
C29
A   30
C30
A   31
C31
A   32
C32
A   33
C33
A   34
C34
A   35
CL
A   36
O36
M  END
>  <Id>  (33) 
4NJ3_2KD_A_301

>  <ChainId>  (33) 
A

>  <AsymId>  (33) 
B

>  <SeqNum>  (33) 
301

>  <Name>  (33) 
6-(3-chlorophenyl)-2-{[(2S)-3-(4-hydroxyphenyl)-1-methoxy-1-oxopropan-2-yl]carbamoyl}quinoline-4-carboxylic acid

>  <SystematicName>  (33) 
6-(3-chlorophenyl)-2-[[(2S)-3-(4-hydroxyphenyl)-1-methoxy-1-oxidanylidene-propan-2-yl]carbamoyl]quinoline-4-carboxylic acid

>  <Synonyms>  (33) 


>  <Type>  (33) 
NON-POLYMER

>  <Formula>  (33) 
C27 H21 Cl N2 O6

>  <ObservedFormula>  (33) 
C27 Cl N2 O6

>  <MolecularWeight>  (33) 
504.918

>  <ModifiedDate>  (33) 
2013-11-22

>  <Parent>  (33) 


>  <OneLetterCode>  (33) 


>  <SubcomponentList>  (33) 


>  <AmbiguousFlag>  (33) 
N

>  <InsertionCode>  (33) 


>  <InstanceId>  (33) 
4NJ3_2KD_A_301

>  <ChemCompId>  (33) 
2KD

>  <PdbId>  (33) 
4NJ3

>  <ResidueNumber>  (33) 
301

>  <InChI>  (33) 
InChI=1S/C27H21ClN2O6/c1-36-27(35)24(11-15-5-8-19(31)9-6-15)30-25(32)23-14-21(26(33)34)20-13-17(7-10-22(20)29-23)16-3-2-4-18(28)12-16/h2-10,12-14,24,31H,11H2,1H3,(H,30,32)(H,33,34)/t24-/m0/s1

>  <InChIKey>  (33) 
LTZGVONWBPMCBP-DEOSSOPVSA-N

>  <SMILES>  (33) 
COC(=O)[C@H](Cc1ccc(cc1)O)NC(=O)c2cc(c3cc(ccc3n2)c4cccc(c4)Cl)C(=O)O

>  <MissingHeavyAtoms>  (33) 
0

>  <Model>  (33) 
1

>  <AltIds>  (33) 


>  <pKI>  (33) 
6.85

>  <ChemblID>  (33) 
CHEMBL3099755

>  <standardized_canonical_smiles>  (33) 
COC(=O)[C@H](Cc1ccc(O)cc1)NC(=O)c1cc(C(=O)O)c2cc(-c3cccc(Cl)c3)ccc2n1

$$$$
2XNB_Y8L_A_1299
     RDKit          3D

 27 30  0  0  0  0  0  0  0  0999 V2000
   21.0300   24.0090   29.2560 C   0  0  0  0  0  0  0  0  0  0  0  0
   20.8700   22.4770   29.2510 C   0  0  0  0  0  0  0  0  0  0  0  0
   21.7240   21.8210   28.2490 N   0  0  0  0  0  0  0  0  0  0  0  0
   21.5470   22.5040   26.9750 C   0  0  0  0  0  0  0  0  0  0  0  0
   22.3130   23.8260   27.0370 C   0  0  0  0  0  0  0  0  0  0  0  0
   21.9990   24.5490   28.2820 N   0  0  0  0  0  0  0  0  0  0  0  0
   22.4700   25.8690   28.4570 C   0  0  0  0  0  0  0  0  0  0  0  0
   23.3890   26.4280   27.5660 C   0  0  0  0  0  0  0  0  0  0  0  0
   23.8190   27.7550   27.7100 C   0  0  0  0  0  0  0  0  0  0  0  0
   22.0090   26.6430   29.5180 C   0  0  0  0  0  0  0  0  0  0  0  0
   22.4710   27.9570   29.6610 C   0  0  0  0  0  0  0  0  0  0  0  0
   23.3580   28.5430   28.7540 C   0  0  0  0  0  0  0  0  0  0  0  0
   23.7530   29.8120   28.9680 N   0  0  0  0  0  0  0  0  0  0  0  0
   24.8420   30.4290   28.4720 C   0  0  0  0  0  0  0  0  0  0  0  0
   25.7860   29.8320   27.7130 N   0  0  0  0  0  0  0  0  0  0  0  0
   24.9300   31.7550   28.6910 N   0  0  0  0  0  0  0  0  0  0  0  0
   25.9450   32.4780   28.2440 C   0  0  0  0  0  0  0  0  0  0  0  0
   26.9460   31.8720   27.5050 C   0  0  0  0  0  0  0  0  0  0  0  0
   26.8650   30.5010   27.2580 C   0  0  0  0  0  0  0  0  0  0  0  0
   27.8370   29.8970   26.4430 C   0  0  0  0  0  0  0  0  0  0  0  0
   29.2070   30.6630   25.7370 S   0  0  0  0  0  0  0  0  0  0  0  0
   29.6770   29.2860   24.8710 C   0  0  0  0  0  0  0  0  0  0  0  0
   30.6760   29.1880   24.1620 O   0  0  0  0  0  0  0  0  0  0  0  0
   28.8420   28.2790   25.1390 N   0  0  0  0  0  0  0  0  0  0  0  0
   29.0250   26.9260   24.5410 C   0  0  0  0  0  0  0  0  0  0  0  0
   27.8370   28.5720   25.9750 C   0  0  0  0  0  0  0  0  0  0  0  0
   26.8040   27.5160   26.3780 C   0  0  0  0  0  0  0  0  0  0  0  0
  2  1  1  0
  6  1  1  0
  3  2  1  0
  4  3  1  0
  5  4  1  0
  6  5  1  0
  7  6  1  0
  8  7  1  0
 10  7  2  0
  9  8  2  0
 12  9  1  0
 11 10  1  0
 12 11  1  0
 13 12  2  0
 14 13  1  0
 15 14  2  0
 16 14  1  0
 19 15  1  0
 17 16  2  0
 18 17  1  0
 19 18  2  0
 20 19  1  0
 21 20  1  0
 26 20  2  0
 22 21  1  0
 23 22  2  0
 24 22  1  0
 25 24  1  0
 26 24  1  0
 27 26  1  0
A    1
C17
A    2
C18
A    3
N19
A    4
C20
A    5
C21
A    6
N16
A    7
C12
A    8
C13
A    9
C14
A   10
C11
A   11
C10
A   12
C9
A   13
N7
A   14
C4
A   15
N5
A   16
N3
A   17
C2
A   18
C1
A   19
C6
A   20
C15
A   21
S23
A   22
C24
A   23
O28
A   24
N25
A   25
C29
A   26
C26
A   27
C27
M  END
>  <Id>  (34) 
2XNB_Y8L_A_1299

>  <ChainId>  (34) 
A

>  <AsymId>  (34) 
B

>  <SeqNum>  (34) 
1299

>  <Name>  (34) 
3,4-DIMETHYL-5-(2-{[(1Z)-4-PIPERAZIN-1-YLCYCLOHEXA-2,4-DIEN-1-YLIDENE]AMINO}PYRIMIDIN-4-YL)-1,3-THIAZOL-2(3H)-ONE

>  <SystematicName>  (34) 
3,4-dimethyl-5-[2-[(4-piperazin-1-yl-1-cyclohexa-2,4-dienylidene)amino]pyrimidin-4-yl]-1,3-thiazol-2-one

>  <Synonyms>  (34) 


>  <Type>  (34) 
non-polymer

>  <Formula>  (34) 
C19 H22 N6 O S

>  <ObservedFormula>  (34) 
C19 S N6 O

>  <MolecularWeight>  (34) 
382.483

>  <ModifiedDate>  (34) 
2011-06-04

>  <Parent>  (34) 


>  <OneLetterCode>  (34) 


>  <SubcomponentList>  (34) 


>  <AmbiguousFlag>  (34) 
N

>  <InsertionCode>  (34) 


>  <InstanceId>  (34) 
2XNB_Y8L_A_1299

>  <ChemCompId>  (34) 
Y8L

>  <PdbId>  (34) 
2XNB

>  <ResidueNumber>  (34) 
1299

>  <InChI>  (34) 
InChI=1S/C19H22N6OS/c1-13-17(27-19(26)24(13)2)16-7-8-21-18(23-16)22-14-3-5-15(6-4-14)25-11-9-20-10-12-25/h3,5-8,20H,4,9-12H2,1-2H3/b22-14+

>  <InChIKey>  (34) 
SNCJEJRBHBIGKH-HYARGMPZSA-N

>  <SMILES>  (34) 
CC1=C(SC(=O)N1C)c2ccnc(n2)N=C3CC=C(C=C3)N4CCNCC4

>  <MissingHeavyAtoms>  (34) 
0

>  <Model>  (34) 
1

>  <AltIds>  (34) 


>  <pKI>  (34) 
6.83

>  <ChemblID>  (34) 
-

>  <standardized_canonical_smiles>  (34) 
Cc1c(-c2ccnc(/N=C3\C=CC(N4CCNCC4)=CC3)n2)sc(=O)n1C

$$$$
2EXM_ZIP_A_400
     RDKit          3D

 15 16  0  0  0  0  0  0  0  0999 V2000
   98.5460   97.0330   80.8880 C   0  0  0  0  0  0  0  0  0  0  0  0
   99.1350   98.4420   81.0110 C   0  0  0  0  0  0  0  0  0  0  0  0
   98.4400   99.2800   82.0650 C   0  0  0  0  0  0  0  0  0  0  0  0
   99.7840   99.0100   79.9600 C   0  0  0  0  0  0  0  0  0  0  0  0
  101.2360   98.9240   79.5100 C   0  0  0  0  0  0  0  0  0  0  0  0
  102.3640   99.2620   80.4040 N   0  0  0  0  0  0  0  0  0  0  0  0
  103.4110  100.1920   80.0820 C   0  0  0  0  0  0  0  0  0  0  0  0
  104.7200  100.2370   80.6810 C   0  0  0  0  0  0  0  0  0  0  0  0
  105.3290   99.4630   81.6920 N   0  0  0  0  0  0  0  0  0  0  0  0
  105.6200  101.2160   80.3090 C   0  0  0  0  0  0  0  0  0  0  0  0
  106.7730  101.0650   80.9900 N   0  0  0  0  0  0  0  0  0  0  0  0
  106.5090  100.0380   81.8390 C   0  0  0  0  0  0  0  0  0  0  0  0
  105.2290  102.1550   79.2940 N   0  0  0  0  0  0  0  0  0  0  0  0
  104.0390  102.0050   78.7480 C   0  0  0  0  0  0  0  0  0  0  0  0
  103.1920  101.1030   79.1230 N   0  0  0  0  0  0  0  0  0  0  0  0
  2  1  1  0
  3  2  1  0
  4  2  2  3
  5  4  1  0
  6  5  1  0
  7  6  1  0
  8  7  2  0
 15  7  1  0
  9  8  1  0
 10  8  1  0
 12  9  2  0
 11 10  1  0
 13 10  2  0
 12 11  1  0
 14 13  1  0
 15 14  2  0
A    1
C14
A    2
C13
A    3
C15
A    4
C12
A    5
C11
A    6
N10
A    7
C6
A    8
C5
A    9
N9
A   10
C4
A   11
N7
A   12
C8
A   13
N3
A   14
C2
A   15
N1
M  END
>  <Id>  (35) 
2EXM_ZIP_A_400

>  <ChainId>  (35) 
A

>  <AsymId>  (35) 
B

>  <SeqNum>  (35) 
400

>  <Name>  (35) 
N-(3-METHYLBUT-2-EN-1-YL)-9H-PURIN-6-AMINE

>  <SystematicName>  (35) 
N-(3-methylbut-2-enyl)-9H-purin-6-amine

>  <Synonyms>  (35) 
ISOPENTENYLADENINE

>  <Type>  (35) 
NON-POLYMER

>  <Formula>  (35) 
C10 H13 N5

>  <ObservedFormula>  (35) 
C10 N5

>  <MolecularWeight>  (35) 
203.244

>  <ModifiedDate>  (35) 
2011-06-04

>  <Parent>  (35) 


>  <OneLetterCode>  (35) 


>  <SubcomponentList>  (35) 


>  <AmbiguousFlag>  (35) 
N

>  <InsertionCode>  (35) 


>  <InstanceId>  (35) 
2EXM_ZIP_A_400

>  <ChemCompId>  (35) 
ZIP

>  <PdbId>  (35) 
2EXM

>  <ResidueNumber>  (35) 
400

>  <InChI>  (35) 
InChI=1S/C10H13N5/c1-7(2)3-4-11-9-8-10(13-5-12-8)15-6-14-9/h3,5-6H,4H2,1-2H3,(H2,11,12,13,14,15)

>  <InChIKey>  (35) 
HYVABZIGRDEKCD-UHFFFAOYSA-N

>  <SMILES>  (35) 
CC(=CCNc1c2c([nH]cn2)ncn1)C

>  <MissingHeavyAtoms>  (35) 
0

>  <Model>  (35) 
1

>  <AltIds>  (35) 


>  <pKI>  (35) 
4.11

>  <ChemblID>  (35) 
-

>  <standardized_canonical_smiles>  (35) 
CC(C)=CCNc1ncnc2[nH]cnc12

$$$$
3LFN_A27_A_299
     RDKit          3D

 28 31  0  0  0  0  0  0  0  0999 V2000
   38.4760   -6.9670   27.6650 C   0  0  0  0  0  0  0  0  0  0  0  0
   38.7670   -7.8590   26.6150 C   0  0  0  0  0  0  0  0  0  0  0  0
   39.0740   -7.3820   25.3280 C   0  0  0  0  0  0  0  0  0  0  0  0
   39.1280   -5.9940   25.1150 C   0  0  0  0  0  0  0  0  0  0  0  0
   38.8470   -5.1040   26.1550 C   0  0  0  0  0  0  0  0  0  0  0  0
   38.5160   -5.5890   27.4290 C   0  0  0  0  0  0  0  0  0  0  0  0
   39.3850   -8.2550   24.2700 C   0  0  0  0  0  0  0  0  0  0  0  0
   38.6430   -8.3330   23.0630 C   0  0  0  0  0  0  0  0  0  0  0  0
   39.0840   -9.1830   22.0430 C   0  0  0  0  0  0  0  0  0  0  0  0
   40.2340   -9.9550   22.1960 C   0  0  0  0  0  0  0  0  0  0  0  0
   40.9740   -9.8770   23.3690 C   0  0  0  0  0  0  0  0  0  0  0  0
   40.5430   -9.0360   24.4000 C   0  0  0  0  0  0  0  0  0  0  0  0
   37.4790   -7.6120   22.8050 C   0  0  0  0  0  0  0  0  0  0  0  0
   37.3270   -7.0710   21.5260 C   0  0  0  0  0  0  0  0  0  0  0  0
   36.2100   -6.3090   21.2130 C   0  0  0  0  0  0  0  0  0  0  0  0
   35.2150   -6.1260   22.1670 C   0  0  0  0  0  0  0  0  0  0  0  0
   35.3470   -6.6840   23.4390 C   0  0  0  0  0  0  0  0  0  0  0  0
   36.4610   -7.4660   23.7540 C   0  0  0  0  0  0  0  0  0  0  0  0
   34.1130   -5.4060   21.8380 O   0  0  0  0  0  0  0  0  0  0  0  0
   40.8560  -10.8010   21.3770 N   0  0  0  0  0  0  0  0  0  0  0  0
   41.8720  -11.2570   21.9120 N   0  0  0  0  0  0  0  0  0  0  0  0
   42.0350  -10.7480   23.1300 C   0  0  0  0  0  0  0  0  0  0  0  0
   43.1070  -11.0760   23.8700 N   0  0  0  0  0  0  0  0  0  0  0  0
   43.5290  -10.6280   25.0590 C   0  0  0  0  0  0  0  0  0  0  0  0
   44.8490  -11.2560   25.5110 C   0  0  0  0  0  0  0  0  0  0  0  0
   44.6370  -12.7000   25.9650 C   0  0  0  0  0  0  0  0  0  0  0  0
   45.8120  -13.1940   26.8070 C   0  0  0  0  0  0  0  0  0  0  0  0
   42.9620   -9.8040   25.7770 O   0  0  0  0  0  0  0  0  0  0  0  0
  2  1  2  0
  6  1  1  0
  3  2  1  0
  4  3  2  0
  7  3  1  0
  5  4  1  0
  6  5  2  0
  8  7  1  0
 12  7  2  0
  9  8  2  0
 13  8  1  0
 10  9  1  0
 11 10  2  0
 20 10  1  0
 12 11  1  0
 22 11  1  0
 14 13  2  0
 18 13  1  0
 15 14  1  0
 16 15  2  0
 17 16  1  0
 19 16  1  0
 18 17  2  0
 21 20  1  0
 22 21  2  0
 23 22  1  0
 24 23  1  0
 25 24  1  0
 28 24  2  0
 26 25  1  0
 27 26  1  0
A    1
C1
A    2
C2
A    3
C3
A    4
C4
A    5
C5
A    6
C6
A    7
C12
A    8
C13
A    9
C14
A   10
C15
A   11
C16
A   12
C17
A   13
C20
A   14
C21
A   15
C22
A   16
C23
A   17
C24
A   18
C25
A   19
O30
A   20
N31
A   21
N32
A   22
C33
A   23
N34
A   24
C35
A   25
C36
A   26
C37
A   27
C40
A   28
O46
M  END
>  <Id>  (36) 
3LFN_A27_A_299

>  <ChainId>  (36) 
A

>  <AsymId>  (36) 
B

>  <SeqNum>  (36) 
299

>  <Name>  (36) 
N-[6-(4-hydroxyphenyl)-5-phenyl-1H-indazol-3-yl]butanamide

>  <SystematicName>  (36) 
N-[6-(4-hydroxyphenyl)-5-phenyl-1H-indazol-3-yl]butanamide

>  <Synonyms>  (36) 


>  <Type>  (36) 
NON-POLYMER

>  <Formula>  (36) 
C23 H21 N3 O2

>  <ObservedFormula>  (36) 
C23 N3 O2

>  <MolecularWeight>  (36) 
371.432

>  <ModifiedDate>  (36) 
2011-06-04

>  <Parent>  (36) 


>  <OneLetterCode>  (36) 


>  <SubcomponentList>  (36) 


>  <AmbiguousFlag>  (36) 
N

>  <InsertionCode>  (36) 


>  <InstanceId>  (36) 
3LFN_A27_A_299

>  <ChemCompId>  (36) 
A27

>  <PdbId>  (36) 
3LFN

>  <ResidueNumber>  (36) 
299

>  <InChI>  (36) 
InChI=1S/C23H21N3O2/c1-2-6-22(28)24-23-20-13-18(15-7-4-3-5-8-15)19(14-21(20)25-26-23)16-9-11-17(27)12-10-16/h3-5,7-14,27H,2,6H2,1H3,(H2,24,25,26,28)

>  <InChIKey>  (36) 
KYYOHACAJWYNOT-UHFFFAOYSA-N

>  <SMILES>  (36) 
CCCC(=O)Nc1c2cc(c(cc2[nH]n1)c3ccc(cc3)O)c4ccccc4

>  <MissingHeavyAtoms>  (36) 
0

>  <Model>  (36) 
1

>  <AltIds>  (36) 


>  <pKI>  (36) 
5.5

>  <ChemblID>  (36) 
-

>  <standardized_canonical_smiles>  (36) 
CCCC(=O)Nc1n[nH]c2cc(-c3ccc(O)cc3)c(-c3ccccc3)cc12

$$$$
3LFS_A07_A_299
     RDKit          3D

 22 24  0  0  0  0  0  0  0  0999 V2000
   39.4270   -7.6870   25.5620 C   0  0  0  0  0  0  0  0  0  0  0  0
   37.9800   -7.6880   22.8980 Cl  0  0  0  0  0  0  0  0  0  0  0  0
   40.2440   -6.5870   25.8510 C   0  0  0  0  0  0  0  0  0  0  0  0
   39.8200   -5.6070   26.7540 C   0  0  0  0  0  0  0  0  0  0  0  0
   38.5750   -5.7250   27.3790 C   0  0  0  0  0  0  0  0  0  0  0  0
   37.7640   -6.8320   27.1060 C   0  0  0  0  0  0  0  0  0  0  0  0
   38.1830   -7.8050   26.1900 C   0  0  0  0  0  0  0  0  0  0  0  0
   39.3150   -8.6950   23.3510 C   0  0  0  0  0  0  0  0  0  0  0  0
   39.8160   -9.6030   22.4150 C   0  0  0  0  0  0  0  0  0  0  0  0
   40.8690  -10.4530   22.7620 C   0  0  0  0  0  0  0  0  0  0  0  0
   41.4350  -10.3960   24.0320 C   0  0  0  0  0  0  0  0  0  0  0  0
   40.9560   -9.4580   24.9590 C   0  0  0  0  0  0  0  0  0  0  0  0
   39.8680   -8.6360   24.6400 C   0  0  0  0  0  0  0  0  0  0  0  0
   41.5610  -11.3490   22.0640 N   0  0  0  0  0  0  0  0  0  0  0  0
   42.4290  -11.8890   22.7660 N   0  0  0  0  0  0  0  0  0  0  0  0
   42.4770  -11.3210   23.9680 C   0  0  0  0  0  0  0  0  0  0  0  0
   43.3290  -11.7590   24.9180 N   0  0  0  0  0  0  0  0  0  0  0  0
   43.4730  -11.3490   26.1890 C   0  0  0  0  0  0  0  0  0  0  0  0
   44.5440  -12.1110   26.9810 C   0  0  0  0  0  0  0  0  0  0  0  0
   45.9230  -11.4400   26.9320 C   0  0  0  0  0  0  0  0  0  0  0  0
   45.8560   -9.9340   27.2150 C   0  0  0  0  0  0  0  0  0  0  0  0
   42.8300  -10.4590   26.7450 O   0  0  0  0  0  0  0  0  0  0  0  0
  3  1  2  0
  7  1  1  0
 13  1  1  0
  8  2  1  0
  4  3  1  0
  5  4  2  0
  6  5  1  0
  7  6  2  0
  9  8  2  0
 13  8  1  0
 10  9  1  0
 11 10  2  0
 14 10  1  0
 12 11  1  0
 16 11  1  0
 13 12  2  0
 15 14  1  0
 16 15  2  0
 17 16  1  0
 18 17  1  0
 19 18  1  0
 22 18  2  0
 20 19  1  0
 21 20  1  0
A    1
C1
A    2
CL1
A    3
C2
A    4
C3
A    5
C4
A    6
C5
A    7
C6
A    8
C12
A    9
C13
A   10
C14
A   11
C15
A   12
C16
A   13
C17
A   14
N20
A   15
N21
A   16
C22
A   17
N23
A   18
C24
A   19
C25
A   20
C26
A   21
C29
A   22
O35
M  END
>  <Id>  (37) 
3LFS_A07_A_299

>  <ChainId>  (37) 
A

>  <AsymId>  (37) 
B

>  <SeqNum>  (37) 
299

>  <Name>  (37) 
N-(6-chloro-5-phenyl-1H-indazol-3-yl)butanamide

>  <SystematicName>  (37) 
N-(6-chloro-5-phenyl-1H-indazol-3-yl)butanamide

>  <Synonyms>  (37) 


>  <Type>  (37) 
NON-POLYMER

>  <Formula>  (37) 
C17 H16 Cl N3 O

>  <ObservedFormula>  (37) 
C17 Cl N3 O

>  <MolecularWeight>  (37) 
313.781

>  <ModifiedDate>  (37) 
2011-06-04

>  <Parent>  (37) 


>  <OneLetterCode>  (37) 


>  <SubcomponentList>  (37) 


>  <AmbiguousFlag>  (37) 
N

>  <InsertionCode>  (37) 


>  <InstanceId>  (37) 
3LFS_A07_A_299

>  <ChemCompId>  (37) 
A07

>  <PdbId>  (37) 
3LFS

>  <ResidueNumber>  (37) 
299

>  <InChI>  (37) 
InChI=1S/C17H16ClN3O/c1-2-6-16(22)19-17-13-9-12(11-7-4-3-5-8-11)14(18)10-15(13)20-21-17/h3-5,7-10H,2,6H2,1H3,(H2,19,20,21,22)

>  <InChIKey>  (37) 
WGVVIVGNBSSANI-UHFFFAOYSA-N

>  <SMILES>  (37) 
CCCC(=O)Nc1c2cc(c(cc2[nH]n1)Cl)c3ccccc3

>  <MissingHeavyAtoms>  (37) 
0

>  <Model>  (37) 
1

>  <AltIds>  (37) 


>  <pKI>  (37) 
5.6

>  <ChemblID>  (37) 
-

>  <standardized_canonical_smiles>  (37) 
CCCC(=O)Nc1n[nH]c2cc(Cl)c(-c3ccccc3)cc12

$$$$
1PKD_UCN_C_411
     RDKit          3D

 36 43  0  0  0  0  0  0  0  0999 V2000
   -2.8170   53.4210  102.6880 O   0  0  0  0  0  0  0  0  0  0  0  0
   -4.1860   52.8310  102.7360 C   0  0  0  0  0  0  0  0  0  0  0  0
   -4.5350   51.9970  101.5840 N   0  0  0  0  0  0  0  0  0  0  0  0
   -4.6950   50.6940  101.8490 C   0  0  0  0  0  0  0  0  0  0  0  0
   -5.0410   49.7950  101.1020 O   0  0  0  0  0  0  0  0  0  0  0  0
   -4.4120   50.5020  103.2720 C   0  0  0  0  0  0  0  0  0  0  0  0
   -4.4150   49.3150  104.1380 C   0  0  0  0  0  0  0  0  0  0  0  0
   -4.6080   47.8830  103.8940 C   0  0  0  0  0  0  0  0  0  0  0  0
   -4.3560   47.2240  105.1930 C   0  0  0  0  0  0  0  0  0  0  0  0
   -4.4220   45.8360  105.2940 C   0  0  0  0  0  0  0  0  0  0  0  0
   -4.6830   45.1220  104.1120 C   0  0  0  0  0  0  0  0  0  0  0  0
   -4.8710   45.7610  102.8680 C   0  0  0  0  0  0  0  0  0  0  0  0
   -4.8150   47.1590  102.7320 C   0  0  0  0  0  0  0  0  0  0  0  0
   -4.1290   48.2090  106.1780 N   0  0  0  0  0  0  0  0  0  0  0  0
   -4.0580   49.4720  105.5550 C   0  0  0  0  0  0  0  0  0  0  0  0
   -3.7720   50.7270  106.1120 C   0  0  0  0  0  0  0  0  0  0  0  0
   -3.4230   51.1780  107.3350 N   0  0  0  0  0  0  0  0  0  0  0  0
   -3.1510   52.5190  107.3760 C   0  0  0  0  0  0  0  0  0  0  0  0
   -3.4080   53.0580  106.0180 C   0  0  0  0  0  0  0  0  0  0  0  0
   -3.1740   54.4250  105.6520 C   0  0  0  0  0  0  0  0  0  0  0  0
   -2.7450   55.2910  106.6510 C   0  0  0  0  0  0  0  0  0  0  0  0
   -2.5080   54.8420  107.9550 C   0  0  0  0  0  0  0  0  0  0  0  0
   -2.6900   53.5060  108.3280 C   0  0  0  0  0  0  0  0  0  0  0  0
   -3.8050   51.9070  105.1960 C   0  0  0  0  0  0  0  0  0  0  0  0
   -4.0950   51.8040  103.8360 C   0  0  0  0  0  0  0  0  0  0  0  0
   -3.2660   50.1960  108.4610 C   0  0  0  0  0  0  0  0  0  0  0  0
   -4.3250   49.2370  108.3350 O   0  0  0  0  0  0  0  0  0  0  0  0
   -4.1100   47.9970  107.6260 C   0  0  0  0  0  0  0  0  0  0  0  0
   -2.8000   47.2900  107.9660 C   0  0  0  0  0  0  0  0  0  0  0  0
   -1.9890   48.1130  108.9480 C   0  0  0  0  0  0  0  0  0  0  0  0
   -0.6950   47.4860  109.1460 N   0  0  0  0  0  0  0  0  0  0  0  0
   -0.6270   46.2960  109.9830 C   0  0  0  0  0  0  0  0  0  0  0  0
   -1.8770   49.5400  108.4150 C   0  0  0  0  0  0  0  0  0  0  0  0
   -1.3360   49.4740  107.0840 O   0  0  0  0  0  0  0  0  0  0  0  0
   -0.2870   50.4210  106.8490 C   0  0  0  0  0  0  0  0  0  0  0  0
   -3.4690   50.8490  109.8290 C   0  0  0  0  0  0  0  0  0  0  0  0
  2  1  1  0
  3  2  1  0
 25  2  1  0
  4  3  1  0
  5  4  2  0
  6  4  1  0
  7  6  2  0
 25  6  1  0
  8  7  1  0
 15  7  1  0
  9  8  2  0
 13  8  1  0
 10  9  1  0
 14  9  1  0
 11 10  2  0
 12 11  1  0
 13 12  2  0
 15 14  1  0
 28 14  1  0
 16 15  2  0
 17 16  1  0
 24 16  1  0
 18 17  1  0
 26 17  1  0
 19 18  2  0
 23 18  1  0
 20 19  1  0
 24 19  1  0
 21 20  2  0
 22 21  1  0
 23 22  2  0
 25 24  2  0
 27 26  1  0
 33 26  1  0
 36 26  1  0
 28 27  1  0
 29 28  1  0
 30 29  1  0
 31 30  1  0
 33 30  1  0
 32 31  1  0
 34 33  1  0
 35 34  1  0
A    1
O37
A    2
C9
A    3
N1
A    4
C8
A    5
O5
A    6
C7
A    7
C6
A    8
C5
A    9
C20
A   10
C1
A   11
C2
A   12
C3
A   13
C4
A   14
N3
A   15
C19
A   16
C18
A   17
N2
A   18
C17
A   19
C12
A   20
C13
A   21
C14
A   22
C15
A   23
C16
A   24
C11
A   25
C10
A   26
C21
A   27
O4
A   28
C25
A   29
C24
A   30
C23
A   31
N4
A   32
C28
A   33
C22
A   34
O6
A   35
C27
A   36
C26
M  END
>  <Id>  (38) 
1PKD_UCN_C_411

>  <ChainId>  (38) 
C

>  <AsymId>  (38) 
F

>  <SeqNum>  (38) 
411

>  <Name>  (38) 
7-HYDROXYSTAUROSPORINE

>  <SystematicName>  (38) 
null

>  <Synonyms>  (38) 


>  <Type>  (38) 
NON-POLYMER

>  <Formula>  (38) 
C28 H26 N4 O4

>  <ObservedFormula>  (38) 
C28 N4 O4

>  <MolecularWeight>  (38) 
482.53

>  <ModifiedDate>  (38) 
2011-06-04

>  <Parent>  (38) 


>  <OneLetterCode>  (38) 


>  <SubcomponentList>  (38) 


>  <AmbiguousFlag>  (38) 
N

>  <InsertionCode>  (38) 


>  <InstanceId>  (38) 
1PKD_UCN_C_411

>  <ChemCompId>  (38) 
UCN

>  <PdbId>  (38) 
1PKD

>  <ResidueNumber>  (38) 
411

>  <InChI>  (38) 
InChI=1S/C28H26N4O4/c1-28-25(35-3)15(29-2)12-18(36-28)31-16-10-6-4-8-13(16)19-21-22(27(34)30-26(21)33)20-14-9-5-7-11-17(14)32(28)24(20)23(19)31/h4-11,15,18,25,27,29,34H,12H2,1-3H3,(H,30,33)/t15-,18-,25-,27-,28+/m1/s1

>  <InChIKey>  (38) 
PBCZSGKMGDDXIJ-HQCWYSJUSA-N

>  <SMILES>  (38) 
C[C@@]12[C@@H]([C@@H](C[C@@H](O1)n3c4ccccc4c5c3c6n2c7ccccc7c6c8c5C(=O)N[C@@H]8O)NC)OC

>  <MissingHeavyAtoms>  (38) 
0

>  <Model>  (38) 
1

>  <AltIds>  (38) 


>  <pKI>  (38) 
7.27

>  <ChemblID>  (38) 
-

>  <standardized_canonical_smiles>  (38) 
CN[C@@H]1C[C@H]2O[C@@](C)([C@@H]1OC)n1c3ccccc3c3c4c(c5c6ccccc6n2c5c31)C(=O)N[C@@H]4O

$$$$
4BCQ_TJF_C_1295
     RDKit          3D

 31 34  0  0  0  0  0  0  0  0999 V2000
   38.4680  -15.0910   37.0600 C   0  0  0  0  0  0  0  0  0  0  0  0
   37.1750  -14.4660   36.9910 N   0  0  0  0  0  0  0  0  0  0  0  0
   36.4400  -14.4390   35.7640 C   0  0  0  0  0  0  0  0  0  0  0  0
   35.4000  -13.5340   35.4600 N   0  0  0  0  0  0  0  0  0  0  0  0
   34.8570  -13.7820   34.1010 C   0  0  0  0  0  0  0  0  0  0  0  0
   33.7450  -12.9850   33.4970 C   0  0  0  0  0  0  0  0  0  0  0  0
   35.5490  -14.8810   33.4900 C   0  0  0  0  0  0  0  0  0  0  0  0
   35.3300  -15.4620   32.1310 C   0  0  0  0  0  0  0  0  0  0  0  0
   34.9940  -16.7590   32.0220 N   0  0  0  0  0  0  0  0  0  0  0  0
   34.8050  -17.3330   30.8300 C   0  0  0  0  0  0  0  0  0  0  0  0
   34.0840  -21.8960   32.5640 C   0  0  0  0  0  0  0  0  0  0  0  0
   34.4440  -18.7100   30.7000 N   0  0  0  0  0  0  0  0  0  0  0  0
   34.6680  -19.7230   31.6820 C   0  0  0  0  0  0  0  0  0  0  0  0
   35.6410  -19.5950   32.6620 C   0  0  0  0  0  0  0  0  0  0  0  0
   35.8330  -20.5970   33.6000 C   0  0  0  0  0  0  0  0  0  0  0  0
   35.0520  -21.7420   33.5570 C   0  0  0  0  0  0  0  0  0  0  0  0
   35.3430  -26.0850   31.9120 C   0  0  0  0  0  0  0  0  0  0  0  0
   34.5190  -26.6550   30.8760 O   0  0  0  0  0  0  0  0  0  0  0  0
   35.0460  -24.6300   32.0690 C   0  0  0  0  0  0  0  0  0  0  0  0
   33.7110  -24.4270   32.2350 N   0  0  0  0  0  0  0  0  0  0  0  0
   33.2160  -23.1080   32.4790 C   0  0  0  0  0  0  0  0  0  0  0  0
   32.0100  -22.9610   32.6190 O   0  0  0  0  0  0  0  0  0  0  0  0
   32.7830  -25.4210   32.1820 C   0  0  0  0  0  0  0  0  0  0  0  0
   33.1130  -26.4820   31.1730 C   0  0  0  0  0  0  0  0  0  0  0  0
   33.8950  -20.8800   31.6420 C   0  0  0  0  0  0  0  0  0  0  0  0
   34.9450  -16.6230   29.7030 N   0  0  0  0  0  0  0  0  0  0  0  0
   35.2820  -15.3290   29.7320 C   0  0  0  0  0  0  0  0  0  0  0  0
   35.4920  -14.7060   30.9600 C   0  0  0  0  0  0  0  0  0  0  0  0
   35.8700  -13.2650   30.9920 C   0  0  0  0  0  0  0  0  0  0  0  0
   36.1550  -12.1640   31.0120 N   0  0  0  0  0  0  0  0  0  0  0  0
   36.6710  -15.4360   34.5110 S   0  0  0  0  0  0  0  0  0  0  0  0
  2  1  1  0
  3  2  1  0
  4  3  2  0
 31  3  1  0
  5  4  1  0
  6  5  1  0
  7  5  2  0
  8  7  1  0
 31  7  1  0
  9  8  2  0
 28  8  1  0
 10  9  1  0
 12 10  1  0
 26 10  2  0
 16 11  1  0
 21 11  1  0
 25 11  2  0
 13 12  1  0
 14 13  2  0
 25 13  1  0
 15 14  1  0
 16 15  2  0
 18 17  1  0
 19 17  1  0
 24 18  1  0
 20 19  1  0
 21 20  1  0
 23 20  1  0
 22 21  2  0
 24 23  1  0
 27 26  1  0
 28 27  2  0
 29 28  1  0
 30 29  3  0
A    1
C01
A    2
N02
A    3
C03
A    4
N04
A    5
C05
A    6
C06
A    7
C07
A    8
C08
A    9
N09
A   10
C10
A   11
C11
A   12
N11
A   13
C12
A   14
C13
A   15
C14
A   16
C15
A   17
C19
A   18
O19
A   19
C20
A   20
N21
A   21
C22
A   22
O24
A   23
C25
A   24
C26
A   25
C27
A   26
N28
A   27
C29
A   28
C30
A   29
C31
A   30
N32
A   31
S33
M  END
>  <Id>  (39) 
4BCQ_TJF_C_1295

>  <ChainId>  (39) 
C

>  <AsymId>  (39) 
F

>  <SeqNum>  (39) 
1295

>  <Name>  (39) 
4-[4-methyl-2-(methylamino)-1,3-thiazol-5-yl]-2-{[3-(morpholin-4-ylcarbonyl)phenyl]amino}pyrimidine-5-carbonitrile

>  <SystematicName>  (39) 
4-[4-methyl-2-(methylamino)-1,3-thiazol-5-yl]-2-[(3-morpholin-4-ylcarbonylphenyl)amino]pyrimidine-5-carbonitrile

>  <Synonyms>  (39) 


>  <Type>  (39) 
NON-POLYMER

>  <Formula>  (39) 
C21 H21 N7 O2 S

>  <ObservedFormula>  (39) 
C21 S N7 O2

>  <MolecularWeight>  (39) 
435.502

>  <ModifiedDate>  (39) 
2013-01-04

>  <Parent>  (39) 


>  <OneLetterCode>  (39) 


>  <SubcomponentList>  (39) 


>  <AmbiguousFlag>  (39) 
N

>  <InsertionCode>  (39) 


>  <InstanceId>  (39) 
4BCQ_TJF_C_1295

>  <ChemCompId>  (39) 
TJF

>  <PdbId>  (39) 
4BCQ

>  <ResidueNumber>  (39) 
1295

>  <InChI>  (39) 
InChI=1S/C21H21N7O2S/c1-13-18(31-21(23-2)25-13)17-15(11-22)12-24-20(27-17)26-16-5-3-4-14(10-16)19(29)28-6-8-30-9-7-28/h3-5,10,12H,6-9H2,1-2H3,(H,23,25)(H,24,26,27)

>  <InChIKey>  (39) 
UFUGKBGESCNADR-UHFFFAOYSA-N

>  <SMILES>  (39) 
Cc1c(sc(n1)NC)c2c(cnc(n2)Nc3cccc(c3)C(=O)N4CCOCC4)C#N

>  <MissingHeavyAtoms>  (39) 
0

>  <Model>  (39) 
1

>  <AltIds>  (39) 


>  <pKI>  (39) 
6.8

>  <ChemblID>  (39) 
-

>  <standardized_canonical_smiles>  (39) 
CNc1nc(C)c(-c2nc(Nc3cccc(C(=O)N4CCOCC4)c3)ncc2C#N)s1

$$$$
4BCP_T3C_A_1299
     RDKit          3D

 30 33  0  0  0  0  0  0  0  0999 V2000
    3.6970   21.2090   18.6260 C   0  0  0  0  0  0  0  0  0  0  0  0
    4.4310   20.0390   19.0130 N   0  0  0  0  0  0  0  0  0  0  0  0
    5.4570   20.1550   20.0100 C   0  0  0  0  0  0  0  0  0  0  0  0
    6.2270   19.1690   20.4990 N   0  0  0  0  0  0  0  0  0  0  0  0
    7.1310   19.5270   21.4370 C   0  0  0  0  0  0  0  0  0  0  0  0
    8.0650   18.4770   22.0720 C   0  0  0  0  0  0  0  0  0  0  0  0
    7.1550   20.8950   21.7900 C   0  0  0  0  0  0  0  0  0  0  0  0
    7.9510   21.5880   22.7040 C   0  0  0  0  0  0  0  0  0  0  0  0
    7.3360   22.3990   23.6120 N   0  0  0  0  0  0  0  0  0  0  0  0
    8.0410   23.1080   24.5000 C   0  0  0  0  0  0  0  0  0  0  0  0
    7.3450   23.9650   25.4800 N   0  0  0  0  0  0  0  0  0  0  0  0
    6.1050   24.5900   25.2170 C   0  0  0  0  0  0  0  0  0  0  0  0
    5.7610   25.7770   25.9460 C   0  0  0  0  0  0  0  0  0  0  0  0
    4.5400   26.4180   25.7120 C   0  0  0  0  0  0  0  0  0  0  0  0
    3.6420   25.8950   24.7590 C   0  0  0  0  0  0  0  0  0  0  0  0
    3.9720   24.7240   24.0370 C   0  0  0  0  0  0  0  0  0  0  0  0
    3.0200   24.1790   23.0430 N   0  0  0  0  0  0  0  0  0  0  0  0
    2.2110   22.9900   23.1470 C   0  0  0  0  0  0  0  0  0  0  0  0
    0.7510   23.2910   23.0680 C   0  0  0  0  0  0  0  0  0  0  0  0
    0.4110   23.9650   21.7720 C   0  0  0  0  0  0  0  0  0  0  0  0
    1.3740   23.6660   20.7500 N   0  0  0  0  0  0  0  0  0  0  0  0
    2.4450   24.6150   20.6740 C   0  0  0  0  0  0  0  0  0  0  0  0
    3.5140   24.4530   21.7220 C   0  0  0  0  0  0  0  0  0  0  0  0
    5.2190   24.0740   24.2790 C   0  0  0  0  0  0  0  0  0  0  0  0
    9.4050   23.0310   24.5270 N   0  0  0  0  0  0  0  0  0  0  0  0
   10.0790   22.2380   23.6340 C   0  0  0  0  0  0  0  0  0  0  0  0
    9.3640   21.5030   22.7030 C   0  0  0  0  0  0  0  0  0  0  0  0
   10.0880   20.6430   21.7290 C   0  0  0  0  0  0  0  0  0  0  0  0
   10.6410   19.9850   20.9880 N   0  0  0  0  0  0  0  0  0  0  0  0
    5.9370   21.6160   20.8150 S   0  0  0  0  0  0  0  0  0  0  0  0
  2  1  1  0
  3  2  1  0
  4  3  2  0
 30  3  1  0
  5  4  1  0
  6  5  1  0
  7  5  2  0
  8  7  1  0
 30  7  1  0
  9  8  2  0
 27  8  1  0
 10  9  1  0
 11 10  1  0
 25 10  2  0
 12 11  1  0
 13 12  2  0
 24 12  1  0
 14 13  1  0
 15 14  2  0
 16 15  1  0
 17 16  1  0
 24 16  2  0
 18 17  1  0
 23 17  1  0
 19 18  1  0
 20 19  1  0
 21 20  1  0
 22 21  1  0
 23 22  1  0
 26 25  1  0
 27 26  2  0
 28 27  1  0
 29 28  3  0
A    1
C01
A    2
N02
A    3
C03
A    4
N04
A    5
C05
A    6
C06
A    7
C07
A    8
C08
A    9
N09
A   10
C10
A   11
N11
A   12
C12
A   13
C13
A   14
C14
A   15
C15
A   16
C16
A   17
N17
A   18
C18
A   19
C19
A   20
C20
A   21
N21
A   22
C22
A   23
C23
A   24
C24
A   25
N25
A   26
C26
A   27
C27
A   28
C28
A   29
N29
A   30
S30
M  END
>  <Id>  (40) 
4BCP_T3C_A_1299

>  <ChainId>  (40) 
A

>  <AsymId>  (40) 
E

>  <SeqNum>  (40) 
1299

>  <Name>  (40) 
2-[[3-(1,4-diazepan-1-yl)phenyl]amino]-4-[4-methyl-2-(methylamino)-1,3-thiazol-5-yl]pyrimidine-5-carbonitrile

>  <SystematicName>  (40) 
2-[[3-(1,4-diazepan-1-yl)phenyl]amino]-4-[4-methyl-2-(methylamino)-1,3-thiazol-5-yl]pyrimidine-5-carbonitrile

>  <Synonyms>  (40) 


>  <Type>  (40) 
non-polymer

>  <Formula>  (40) 
C21 H24 N8 S

>  <ObservedFormula>  (40) 
C21 S N8

>  <MolecularWeight>  (40) 
420.534

>  <ModifiedDate>  (40) 
2014-09-05

>  <Parent>  (40) 


>  <OneLetterCode>  (40) 


>  <SubcomponentList>  (40) 


>  <AmbiguousFlag>  (40) 
N

>  <InsertionCode>  (40) 


>  <InstanceId>  (40) 
4BCP_T3C_A_1299

>  <ChemCompId>  (40) 
T3C

>  <PdbId>  (40) 
4BCP

>  <ResidueNumber>  (40) 
1299

>  <InChI>  (40) 
InChI=1S/C21H24N8S/c1-14-19(30-21(23-2)26-14)18-15(12-22)13-25-20(28-18)27-16-5-3-6-17(11-16)29-9-4-7-24-8-10-29/h3,5-6,11,13,24H,4,7-10H2,1-2H3,(H,23,26)(H,25,27,28)

>  <InChIKey>  (40) 
BKOYUSKBPMSUBK-UHFFFAOYSA-N

>  <SMILES>  (40) 
Cc1c(sc(n1)NC)c2c(cnc(n2)Nc3cccc(c3)N4CCCNCC4)C#N

>  <MissingHeavyAtoms>  (40) 
0

>  <Model>  (40) 
1

>  <AltIds>  (40) 


>  <pKI>  (40) 
6.25

>  <ChemblID>  (40) 
-

>  <standardized_canonical_smiles>  (40) 
CNc1nc(C)c(-c2nc(Nc3cccc(N4CCCNCC4)c3)ncc2C#N)s1

$$$$
4BCO_T6Q_C_1298
     RDKit          3D

 33 36  0  0  0  0  0  0  0  0999 V2000
  -36.4720  -16.5460  -34.5590 C   0  0  0  0  0  0  0  0  0  0  0  0
  -35.3820  -15.5800  -34.5020 N   0  0  0  0  0  0  0  0  0  0  0  0
  -34.6810  -15.4720  -33.2790 C   0  0  0  0  0  0  0  0  0  0  0  0
  -33.8170  -14.5010  -32.8860 N   0  0  0  0  0  0  0  0  0  0  0  0
  -33.2920  -14.6480  -31.6520 C   0  0  0  0  0  0  0  0  0  0  0  0
  -32.3120  -13.6310  -31.1020 C   0  0  0  0  0  0  0  0  0  0  0  0
  -33.7000  -15.7970  -30.9430 C   0  0  0  0  0  0  0  0  0  0  0  0
  -33.3910  -16.2780  -29.6470 C   0  0  0  0  0  0  0  0  0  0  0  0
  -33.0580  -17.5840  -29.4920 N   0  0  0  0  0  0  0  0  0  0  0  0
  -32.7860  -18.0960  -28.2560 C   0  0  0  0  0  0  0  0  0  0  0  0
  -32.4160  -19.5060  -28.1140 N   0  0  0  0  0  0  0  0  0  0  0  0
  -32.8430  -20.5100  -29.0810 C   0  0  0  0  0  0  0  0  0  0  0  0
  -33.8390  -20.2250  -30.0320 C   0  0  0  0  0  0  0  0  0  0  0  0
  -34.2300  -21.1990  -30.9520 C   0  0  0  0  0  0  0  0  0  0  0  0
  -33.6190  -22.4850  -30.9160 C   0  0  0  0  0  0  0  0  0  0  0  0
  -32.6290  -22.7640  -29.9680 C   0  0  0  0  0  0  0  0  0  0  0  0
  -31.9960  -24.0940  -29.9190 N   0  0  0  0  0  0  0  0  0  0  0  0
  -31.8110  -24.5200  -31.2820 C   0  0  0  0  0  0  0  0  0  0  0  0
  -30.5920  -25.3240  -31.5360 C   0  0  0  0  0  0  0  0  0  0  0  0
  -29.3260  -24.5970  -31.2390 C   0  0  0  0  0  0  0  0  0  0  0  0
  -29.0100  -24.6600  -29.8560 N   0  0  0  0  0  0  0  0  0  0  0  0
  -27.6970  -25.1820  -29.5260 C   0  0  0  0  0  0  0  0  0  0  0  0
  -27.2720  -25.2950  -28.0810 C   0  0  0  0  0  0  0  0  0  0  0  0
  -26.9390  -25.5340  -30.4240 O   0  0  0  0  0  0  0  0  0  0  0  0
  -29.8350  -24.2790  -28.7460 C   0  0  0  0  0  0  0  0  0  0  0  0
  -31.2430  -24.7860  -28.9020 C   0  0  0  0  0  0  0  0  0  0  0  0
  -32.2420  -21.7880  -29.0520 C   0  0  0  0  0  0  0  0  0  0  0  0
  -32.8510  -17.3200  -27.1620 N   0  0  0  0  0  0  0  0  0  0  0  0
  -33.2000  -15.9990  -27.2640 C   0  0  0  0  0  0  0  0  0  0  0  0
  -33.4850  -15.4580  -28.5190 C   0  0  0  0  0  0  0  0  0  0  0  0
  -33.8670  -14.0430  -28.6480 C   0  0  0  0  0  0  0  0  0  0  0  0
  -34.1620  -12.9420  -28.7510 N   0  0  0  0  0  0  0  0  0  0  0  0
  -34.7930  -16.6120  -31.9880 S   0  0  0  0  0  0  0  0  0  0  0  0
  2  1  1  0
  3  2  1  0
  4  3  2  0
 33  3  1  0
  5  4  1  0
  6  5  1  0
  7  5  2  0
  8  7  1  0
 33  7  1  0
  9  8  2  0
 30  8  1  0
 10  9  1  0
 11 10  1  0
 28 10  2  0
 12 11  1  0
 13 12  2  0
 27 12  1  0
 14 13  1  0
 15 14  2  0
 16 15  1  0
 17 16  1  0
 27 16  2  0
 18 17  1  0
 26 17  1  0
 19 18  1  0
 20 19  1  0
 21 20  1  0
 22 21  1  0
 25 21  1  0
 23 22  1  0
 24 22  2  0
 26 25  1  0
 29 28  1  0
 30 29  2  0
 31 30  1  0
 32 31  3  0
A    1
C01
A    2
N02
A    3
C03
A    4
N04
A    5
C05
A    6
C06
A    7
C07
A    8
C08
A    9
N09
A   10
C10
A   11
N11
A   12
C12
A   13
C13
A   14
C14
A   15
C15
A   16
C16
A   17
N17
A   18
C18
A   19
C19
A   20
C20
A   21
N21
A   22
C22
A   23
C23
A   24
O24
A   25
C25
A   26
C26
A   27
C27
A   28
N28
A   29
C29
A   30
C30
A   31
C31
A   32
N32
A   33
S33
M  END
>  <Id>  (41) 
4BCO_T6Q_C_1298

>  <ChainId>  (41) 
C

>  <AsymId>  (41) 
I

>  <SeqNum>  (41) 
1298

>  <Name>  (41) 
2-[[3-(4-ethanoyl-1,4-diazepan-1-yl)phenyl]amino]-4-[4-methyl-2-(methylamino)-1,3-thiazol-5-yl]pyrimidine-5-carbonitrile

>  <SystematicName>  (41) 
2-[[3-(4-ethanoyl-1,4-diazepan-1-yl)phenyl]amino]-4-[4-methyl-2-(methylamino)-1,3-thiazol-5-yl]pyrimidine-5-carbonitrile

>  <Synonyms>  (41) 


>  <Type>  (41) 
non-polymer

>  <Formula>  (41) 
C23 H26 N8 O S

>  <ObservedFormula>  (41) 
C23 S N8 O

>  <MolecularWeight>  (41) 
462.571

>  <ModifiedDate>  (41) 
2014-09-05

>  <Parent>  (41) 


>  <OneLetterCode>  (41) 


>  <SubcomponentList>  (41) 


>  <AmbiguousFlag>  (41) 
N

>  <InsertionCode>  (41) 


>  <InstanceId>  (41) 
4BCO_T6Q_C_1298

>  <ChemCompId>  (41) 
T6Q

>  <PdbId>  (41) 
4BCO

>  <ResidueNumber>  (41) 
1298

>  <InChI>  (41) 
InChI=1S/C23H26N8OS/c1-15-21(33-23(25-3)27-15)20-17(13-24)14-26-22(29-20)28-18-6-4-7-19(12-18)31-9-5-8-30(10-11-31)16(2)32/h4,6-7,12,14H,5,8-11H2,1-3H3,(H,25,27)(H,26,28,29)

>  <InChIKey>  (41) 
DZHBFQMOLIUZMP-UHFFFAOYSA-N

>  <SMILES>  (41) 
Cc1c(sc(n1)NC)c2c(cnc(n2)Nc3cccc(c3)N4CCCN(CC4)C(=O)C)C#N

>  <MissingHeavyAtoms>  (41) 
0

>  <Model>  (41) 
1

>  <AltIds>  (41) 


>  <pKI>  (41) 
6.88

>  <ChemblID>  (41) 
-

>  <standardized_canonical_smiles>  (41) 
CNc1nc(C)c(-c2nc(Nc3cccc(N4CCCN(C(C)=O)CC4)c3)ncc2C#N)s1

$$$$
4BCN_T9N_C_1296
     RDKit          3D

 24 26  0  0  0  0  0  0  0  0999 V2000
   37.1100  -13.5320   35.1220 C   0  0  0  0  0  0  0  0  0  0  0  0
   36.6680  -14.6160   34.2980 N   0  0  0  0  0  0  0  0  0  0  0  0
   35.3480  -14.3510   33.7910 C   0  0  0  0  0  0  0  0  0  0  0  0
   34.8090  -13.1600   33.4920 N   0  0  0  0  0  0  0  0  0  0  0  0
   33.9220  -13.1350   32.4070 C   0  0  0  0  0  0  0  0  0  0  0  0
   33.0520  -11.9640   32.0690 C   0  0  0  0  0  0  0  0  0  0  0  0
   33.7740  -14.4630   31.8270 C   0  0  0  0  0  0  0  0  0  0  0  0
   33.6880  -14.9000   30.3930 C   0  0  0  0  0  0  0  0  0  0  0  0
   33.3940  -16.2160   30.1570 N   0  0  0  0  0  0  0  0  0  0  0  0
   33.2530  -16.8610   28.9670 C   0  0  0  0  0  0  0  0  0  0  0  0
   32.9960  -18.2680   28.8450 N   0  0  0  0  0  0  0  0  0  0  0  0
   33.5240  -19.2020   29.8160 C   0  0  0  0  0  0  0  0  0  0  0  0
   34.3600  -18.7930   30.8030 C   0  0  0  0  0  0  0  0  0  0  0  0
   34.8900  -19.7860   31.8180 C   0  0  0  0  0  0  0  0  0  0  0  0
   35.7400  -19.3750   32.8180 O   0  0  0  0  0  0  0  0  0  0  0  0
   34.5270  -21.0950   31.7380 C   0  0  0  0  0  0  0  0  0  0  0  0
   33.6120  -21.5480   30.6610 C   0  0  0  0  0  0  0  0  0  0  0  0
   33.1290  -20.6500   29.7370 C   0  0  0  0  0  0  0  0  0  0  0  0
   33.4350  -16.0460   27.9460 N   0  0  0  0  0  0  0  0  0  0  0  0
   33.7260  -14.7360   28.0490 C   0  0  0  0  0  0  0  0  0  0  0  0
   33.8800  -14.0570   29.2780 C   0  0  0  0  0  0  0  0  0  0  0  0
   34.2320  -12.6110   29.3420 C   0  0  0  0  0  0  0  0  0  0  0  0
   34.4970  -11.5030   29.3690 N   0  0  0  0  0  0  0  0  0  0  0  0
   34.2900  -15.5370   33.1260 S   0  0  0  0  0  0  0  0  0  0  0  0
  2  1  1  0
  3  2  1  0
  4  3  2  0
 24  3  1  0
  5  4  1  0
  6  5  1  0
  7  5  2  0
  8  7  1  0
 24  7  1  0
  9  8  2  0
 21  8  1  0
 10  9  1  0
 11 10  1  0
 19 10  2  0
 12 11  1  0
 13 12  2  0
 18 12  1  0
 14 13  1  0
 15 14  1  0
 16 14  2  0
 17 16  1  0
 18 17  2  0
 20 19  1  0
 21 20  2  0
 22 21  1  0
 23 22  3  0
A    1
C01
A    2
N02
A    3
C03
A    4
N04
A    5
C05
A    6
C06
A    7
C07
A    8
C08
A    9
N09
A   10
C10
A   11
N11
A   12
C12
A   13
C13
A   14
C14
A   15
O15
A   16
C16
A   17
C17
A   18
C18
A   19
N19
A   20
C20
A   21
C21
A   22
C22
A   23
N23
A   24
S24
M  END
>  <Id>  (42) 
4BCN_T9N_C_1296

>  <ChainId>  (42) 
C

>  <AsymId>  (42) 
G

>  <SeqNum>  (42) 
1296

>  <Name>  (42) 
2-[(3-hydroxyphenyl)amino]-4-[4-methyl-2-(methylamino)-1,3-thiazol-5-yl]pyrimidine-5-carbonitrile

>  <SystematicName>  (42) 
2-[(3-hydroxyphenyl)amino]-4-[4-methyl-2-(methylamino)-1,3-thiazol-5-yl]pyrimidine-5-carbonitrile

>  <Synonyms>  (42) 


>  <Type>  (42) 
non-polymer

>  <Formula>  (42) 
C16 H14 N6 O S

>  <ObservedFormula>  (42) 
C16 S N6 O

>  <MolecularWeight>  (42) 
338.387

>  <ModifiedDate>  (42) 
2014-09-05

>  <Parent>  (42) 


>  <OneLetterCode>  (42) 


>  <SubcomponentList>  (42) 


>  <AmbiguousFlag>  (42) 
N

>  <InsertionCode>  (42) 


>  <InstanceId>  (42) 
4BCN_T9N_C_1296

>  <ChemCompId>  (42) 
T9N

>  <PdbId>  (42) 
4BCN

>  <ResidueNumber>  (42) 
1296

>  <InChI>  (42) 
InChI=1S/C16H14N6OS/c1-9-14(24-16(18-2)20-9)13-10(7-17)8-19-15(22-13)21-11-4-3-5-12(23)6-11/h3-6,8,23H,1-2H3,(H,18,20)(H,19,21,22)

>  <InChIKey>  (42) 
NYRVLHGVDPPWJS-UHFFFAOYSA-N

>  <SMILES>  (42) 
Cc1c(sc(n1)NC)c2c(cnc(n2)Nc3cccc(c3)O)C#N

>  <MissingHeavyAtoms>  (42) 
0

>  <Model>  (42) 
1

>  <AltIds>  (42) 


>  <pKI>  (42) 
7.92

>  <ChemblID>  (42) 
-

>  <standardized_canonical_smiles>  (42) 
CNc1nc(C)c(-c2nc(Nc3cccc(O)c3)ncc2C#N)s1

$$$$
4BCK_T3E_C_1295
     RDKit          3D

 27 29  0  0  0  0  0  0  0  0999 V2000
   36.2080  -14.1080   37.6950 C   0  0  0  0  0  0  0  0  0  0  0  0
   35.6700  -15.2460   36.9810 N   0  0  0  0  0  0  0  0  0  0  0  0
   35.2890  -15.1020   35.5990 C   0  0  0  0  0  0  0  0  0  0  0  0
   34.6830  -13.9790   35.0350 N   0  0  0  0  0  0  0  0  0  0  0  0
   34.4350  -14.1550   33.5820 C   0  0  0  0  0  0  0  0  0  0  0  0
   33.7950  -13.1110   32.7400 C   0  0  0  0  0  0  0  0  0  0  0  0
   34.8970  -15.4430   33.1520 C   0  0  0  0  0  0  0  0  0  0  0  0
   34.8430  -16.0530   31.7500 C   0  0  0  0  0  0  0  0  0  0  0  0
   34.4190  -17.3390   31.6470 N   0  0  0  0  0  0  0  0  0  0  0  0
   34.3760  -17.9790   30.4320 C   0  0  0  0  0  0  0  0  0  0  0  0
   33.8960  -19.3460   30.3600 N   0  0  0  0  0  0  0  0  0  0  0  0
   34.5170  -20.4130   31.1320 C   0  0  0  0  0  0  0  0  0  0  0  0
   34.9020  -20.2150   32.4640 C   0  0  0  0  0  0  0  0  0  0  0  0
   35.4860  -21.2680   33.1950 C   0  0  0  0  0  0  0  0  0  0  0  0
   35.9910  -21.0320   34.8860 S   0  0  0  0  0  0  0  0  0  0  0  0
   34.9410  -20.3720   35.6240 O   0  0  0  0  0  0  0  0  0  0  0  0
   37.3290  -20.0750   34.8700 N   0  0  0  0  0  0  0  0  0  0  0  0
   36.2730  -22.2950   35.5090 O   0  0  0  0  0  0  0  0  0  0  0  0
   35.6580  -22.5050   32.5910 C   0  0  0  0  0  0  0  0  0  0  0  0
   35.2610  -22.7070   31.2650 C   0  0  0  0  0  0  0  0  0  0  0  0
   34.6860  -21.6580   30.5380 C   0  0  0  0  0  0  0  0  0  0  0  0
   34.7280  -17.3190   29.2870 N   0  0  0  0  0  0  0  0  0  0  0  0
   35.1520  -16.0370   29.3720 C   0  0  0  0  0  0  0  0  0  0  0  0
   35.2210  -15.3990   30.5880 C   0  0  0  0  0  0  0  0  0  0  0  0
   35.7090  -13.9870   30.5640 C   0  0  0  0  0  0  0  0  0  0  0  0
   36.0820  -12.9070   30.5190 N   0  0  0  0  0  0  0  0  0  0  0  0
   35.5040  -16.2180   34.4360 S   0  0  0  0  0  0  0  0  0  0  0  0
  2  1  1  0
  3  2  1  0
  4  3  2  0
 27  3  1  0
  5  4  1  0
  6  5  1  0
  7  5  2  0
  8  7  1  0
 27  7  1  0
  9  8  2  0
 24  8  1  0
 10  9  1  0
 11 10  1  0
 22 10  2  0
 12 11  1  0
 13 12  2  0
 21 12  1  0
 14 13  1  0
 15 14  1  0
 19 14  2  0
 16 15  2  0
 17 15  1  0
 18 15  2  0
 20 19  1  0
 21 20  2  0
 23 22  1  0
 24 23  2  0
 25 24  1  0
 26 25  3  0
A    1
C7A
A    2
N6A
A    3
C3A
A    4
N2A
A    5
C1A
A    6
C8A
A    7
C5A
A    8
C4
A    9
N3
A   10
C2
A   11
N7
A   12
C1B
A   13
C2B
A   14
C3B
A   15
S7B
A   16
O8B
A   17
N9B
A   18
O1B
A   19
C4B
A   20
C5B
A   21
C6B
A   22
N1
A   23
C6
A   24
C5
A   25
C8
A   26
N9
A   27
S4A
M  END
>  <Id>  (43) 
4BCK_T3E_C_1295

>  <ChainId>  (43) 
C

>  <AsymId>  (43) 
G

>  <SeqNum>  (43) 
1295

>  <Name>  (43) 
3-[[5-cyano-4-[4-methyl-2-(methylamino)-1,3-thiazol-5-yl]pyrimidin-2-yl]amino]benzenesulfonamide

>  <SystematicName>  (43) 
3-[[5-cyano-4-[4-methyl-2-(methylamino)-1,3-thiazol-5-yl]pyrimidin-2-yl]amino]benzenesulfonamide

>  <Synonyms>  (43) 


>  <Type>  (43) 
non-polymer

>  <Formula>  (43) 
C16 H15 N7 O2 S2

>  <ObservedFormula>  (43) 
C16 S2 N7 O2

>  <MolecularWeight>  (43) 
401.466

>  <ModifiedDate>  (43) 
2014-09-05

>  <Parent>  (43) 


>  <OneLetterCode>  (43) 


>  <SubcomponentList>  (43) 


>  <AmbiguousFlag>  (43) 
N

>  <InsertionCode>  (43) 


>  <InstanceId>  (43) 
4BCK_T3E_C_1295

>  <ChemCompId>  (43) 
T3E

>  <PdbId>  (43) 
4BCK

>  <ResidueNumber>  (43) 
1295

>  <InChI>  (43) 
InChI=1S/C16H15N7O2S2/c1-9-14(26-16(19-2)21-9)13-10(7-17)8-20-15(23-13)22-11-4-3-5-12(6-11)27(18,24)25/h3-6,8H,1-2H3,(H,19,21)(H2,18,24,25)(H,20,22,23)

>  <InChIKey>  (43) 
SGOFFNQMBSXTRU-UHFFFAOYSA-N

>  <SMILES>  (43) 
Cc1c(sc(n1)NC)c2c(cnc(n2)Nc3cccc(c3)S(=O)(=O)N)C#N

>  <MissingHeavyAtoms>  (43) 
0

>  <Model>  (43) 
1

>  <AltIds>  (43) 


>  <pKI>  (43) 
8.4

>  <ChemblID>  (43) 
-

>  <standardized_canonical_smiles>  (43) 
CNc1nc(C)c(-c2nc(Nc3cccc(S(N)(=O)=O)c3)ncc2C#N)s1

$$$$
4BCM_T7Z_A_1297
     RDKit          3D

 33 36  0  0  0  0  0  0  0  0999 V2000
    2.8030   18.7210   20.4100 C   0  0  0  0  0  0  0  0  0  0  0  0
    3.1950   20.0360   20.8210 N   0  0  0  0  0  0  0  0  0  0  0  0
    4.5130   20.2430   21.4290 C   0  0  0  0  0  0  0  0  0  0  0  0
    5.5160   19.2440   21.4770 N   0  0  0  0  0  0  0  0  0  0  0  0
    6.7600   19.7590   22.1680 C   0  0  0  0  0  0  0  0  0  0  0  0
    8.0070   18.8960   22.3770 C   0  0  0  0  0  0  0  0  0  0  0  0
    6.5660   21.1400   22.5730 C   0  0  0  0  0  0  0  0  0  0  0  0
    7.5570   22.0460   23.3250 C   0  0  0  0  0  0  0  0  0  0  0  0
    7.0660   22.8340   24.3160 N   0  0  0  0  0  0  0  0  0  0  0  0
    7.8730   23.6660   25.0160 C   0  0  0  0  0  0  0  0  0  0  0  0
    7.3450   24.4980   26.0680 N   0  0  0  0  0  0  0  0  0  0  0  0
    6.0280   25.1430   26.0800 C   0  0  0  0  0  0  0  0  0  0  0  0
    5.1970   25.2430   24.9540 C   0  0  0  0  0  0  0  0  0  0  0  0
    3.9300   25.8910   25.0660 C   0  0  0  0  0  0  0  0  0  0  0  0
    2.8520   26.0340   23.6120 S   0  0  0  0  0  0  0  0  0  0  0  0
    1.7130   24.8620   23.7510 N   0  0  0  0  0  0  0  0  0  0  0  0
    0.5610   25.2910   23.1870 C   0  0  0  0  0  0  0  0  0  0  0  0
   -0.5640   24.3590   23.5010 C   0  0  0  0  0  0  0  0  0  0  0  0
   -0.2020   22.9860   23.1880 O   0  0  0  0  0  0  0  0  0  0  0  0
    0.9400   22.6350   24.0220 C   0  0  0  0  0  0  0  0  0  0  0  0
    2.0920   23.5640   23.8350 C   0  0  0  0  0  0  0  0  0  0  0  0
    2.2740   27.3500   23.5580 O   0  0  0  0  0  0  0  0  0  0  0  0
    3.5790   25.7920   22.3950 O   0  0  0  0  0  0  0  0  0  0  0  0
    3.5140   26.4150   26.3160 C   0  0  0  0  0  0  0  0  0  0  0  0
    2.1980   27.0970   26.4970 C   0  0  0  0  0  0  0  0  0  0  0  0
    4.3390   26.3080   27.4250 C   0  0  0  0  0  0  0  0  0  0  0  0
    5.5980   25.6710   27.3070 C   0  0  0  0  0  0  0  0  0  0  0  0
    9.1850   23.7230   24.7750 N   0  0  0  0  0  0  0  0  0  0  0  0
    9.7460   22.9630   23.8160 C   0  0  0  0  0  0  0  0  0  0  0  0
    8.9270   22.0870   23.0470 C   0  0  0  0  0  0  0  0  0  0  0  0
    9.5570   21.2580   21.9740 C   0  0  0  0  0  0  0  0  0  0  0  0
   10.0680   20.6250   21.1520 N   0  0  0  0  0  0  0  0  0  0  0  0
    5.0650   21.6300   22.1470 S   0  0  0  0  0  0  0  0  0  0  0  0
  2  1  1  0
  3  2  2  0
  4  3  1  0
 33  3  1  0
  5  4  1  0
  6  5  1  0
  7  5  2  0
  8  7  1  0
 33  7  1  0
  9  8  2  0
 30  8  1  0
 10  9  1  0
 11 10  1  0
 28 10  2  0
 12 11  1  0
 13 12  2  0
 27 12  1  0
 14 13  1  0
 15 14  1  0
 24 14  2  0
 16 15  1  0
 22 15  2  0
 23 15  2  0
 17 16  1  0
 21 16  1  0
 18 17  1  0
 19 18  1  0
 20 19  1  0
 21 20  1  0
 25 24  1  0
 26 24  1  0
 27 26  2  0
 29 28  1  0
 30 29  2  0
 31 30  1  0
 32 31  3  0
A    1
C01
A    2
N02
A    3
C03
A    4
N04
A    5
C05
A    6
C06
A    7
C07
A    8
C08
A    9
N09
A   10
C10
A   11
N11
A   12
C12
A   13
C13
A   14
C14
A   15
S15
A   16
N16
A   17
C17
A   18
C18
A   19
O19
A   20
C20
A   21
C21
A   22
O22
A   23
O23
A   24
C24
A   25
C25
A   26
C26
A   27
C27
A   28
N28
A   29
C29
A   30
C30
A   31
C31
A   32
N32
A   33
S33
M  END
>  <Id>  (44) 
4BCM_T7Z_A_1297

>  <ChainId>  (44) 
A

>  <AsymId>  (44) 
E

>  <SeqNum>  (44) 
1297

>  <Name>  (44) 
4-(4-methyl-2-methylimino-3H-1,3-thiazol-5-yl)-2-[(4-methyl-3-morpholin-4-ylsulfonyl-phenyl)amino]pyrimidine-5-carbonitrile

>  <SystematicName>  (44) 
4-(4-methyl-2-methylimino-3H-1,3-thiazol-5-yl)-2-[(4-methyl-3-morpholin-4-ylsulfonyl-phenyl)amino]pyrimidine-5-carbonitrile

>  <Synonyms>  (44) 


>  <Type>  (44) 
non-polymer

>  <Formula>  (44) 
C21 H23 N7 O3 S2

>  <ObservedFormula>  (44) 
C21 S2 N7 O3

>  <MolecularWeight>  (44) 
485.582

>  <ModifiedDate>  (44) 
2014-09-05

>  <Parent>  (44) 


>  <OneLetterCode>  (44) 


>  <SubcomponentList>  (44) 


>  <AmbiguousFlag>  (44) 
N

>  <InsertionCode>  (44) 


>  <InstanceId>  (44) 
4BCM_T7Z_A_1297

>  <ChemCompId>  (44) 
T7Z

>  <PdbId>  (44) 
4BCM

>  <ResidueNumber>  (44) 
1297

>  <InChI>  (44) 
InChI=1S/C21H23N7O3S2/c1-13-4-5-16(10-17(13)33(29,30)28-6-8-31-9-7-28)26-20-24-12-15(11-22)18(27-20)19-14(2)25-21(23-3)32-19/h4-5,10,12H,6-9H2,1-3H3,(H,23,25)(H,24,26,27)

>  <InChIKey>  (44) 
SSEDQERECATUBR-UHFFFAOYSA-N

>  <SMILES>  (44) 
Cc1ccc(cc1S(=O)(=O)N2CCOCC2)Nc3ncc(c(n3)C4=C(NC(=NC)S4)C)C#N

>  <MissingHeavyAtoms>  (44) 
0

>  <Model>  (44) 
1

>  <AltIds>  (44) 


>  <pKI>  (44) 
6.91

>  <ChemblID>  (44) 
-

>  <standardized_canonical_smiles>  (44) 
C/N=c1\[nH]c(C)c(-c2nc(Nc3ccc(C)c(S(=O)(=O)N4CCOCC4)c3)ncc2C#N)s1

$$$$
4ACM_7YG_A_1302
     RDKit          3D

 31 33  0  0  0  0  0  0  0  0999 V2000
    5.3390   20.3560    6.9990 C   0  0  0  0  0  0  0  0  0  0  0  0
    4.7030   21.6270    7.3360 N   0  0  0  0  0  0  0  0  0  0  0  0
    3.3190   21.4020    7.7540 C   0  0  0  0  0  0  0  0  0  0  0  0
    4.7730   22.5750    6.2180 C   0  0  0  0  0  0  0  0  0  0  0  0
    4.7010   24.0610    6.5590 C   0  0  0  0  0  0  0  0  0  0  0  0
    5.7890   24.4290    7.4760 N   0  0  0  0  0  0  0  0  0  0  0  0
    6.5320   25.8560    7.3410 S   0  0  0  0  0  0  0  0  0  0  0  0
    7.1710   25.8760    6.0610 O   0  0  0  0  0  0  0  0  0  0  0  0
    7.3250   26.0170    8.5230 O   0  0  0  0  0  0  0  0  0  0  0  0
    5.2920   27.1050    7.3690 C   0  0  0  0  0  0  0  0  0  0  0  0
    4.4170   27.1680    8.4390 C   0  0  0  0  0  0  0  0  0  0  0  0
    3.4570   28.1620    8.4780 C   0  0  0  0  0  0  0  0  0  0  0  0
    3.3650   29.1270    7.4750 C   0  0  0  0  0  0  0  0  0  0  0  0
    4.2670   29.0400    6.4080 C   0  0  0  0  0  0  0  0  0  0  0  0
    5.2350   28.0520    6.3560 C   0  0  0  0  0  0  0  0  0  0  0  0
    2.3320   30.1930    7.5330 C   0  0  0  0  0  0  0  0  0  0  0  0
    2.4550   31.4010    6.8410 C   0  0  0  0  0  0  0  0  0  0  0  0
    1.6350   32.4370    7.0490 N   0  0  0  0  0  0  0  0  0  0  0  0
    0.6320   32.2920    7.9420 C   0  0  0  0  0  0  0  0  0  0  0  0
    0.4920   31.0440    8.6590 C   0  0  0  0  0  0  0  0  0  0  0  0
    1.3380   30.0240    8.4230 N   0  0  0  0  0  0  0  0  0  0  0  0
   -0.5780   30.8060    9.6850 C   0  0  0  0  0  0  0  0  0  0  0  0
   -1.4700   31.6310    9.8490 O   0  0  0  0  0  0  0  0  0  0  0  0
   -0.4680   29.6420   10.3590 N   0  0  0  0  0  0  0  0  0  0  0  0
   -1.3440   29.1150   11.3360 C   0  0  0  0  0  0  0  0  0  0  0  0
   -0.8480   28.1230   12.1650 C   0  0  0  0  0  0  0  0  0  0  0  0
   -1.6720   27.5580   13.1190 C   0  0  0  0  0  0  0  0  0  0  0  0
   -2.9820   27.9790   13.1910 C   0  0  0  0  0  0  0  0  0  0  0  0
   -3.4950   28.9330   12.4080 N   0  0  0  0  0  0  0  0  0  0  0  0
   -2.6820   29.4790   11.4940 C   0  0  0  0  0  0  0  0  0  0  0  0
   -0.1680   33.3350    8.1730 N   0  0  0  0  0  0  0  0  0  0  0  0
  2  1  1  0
  3  2  1  0
  4  2  1  0
  5  4  1  0
  6  5  1  0
  7  6  1  0
  8  7  2  0
  9  7  2  0
 10  7  1  0
 11 10  2  0
 15 10  1  0
 12 11  1  0
 13 12  2  0
 14 13  1  0
 16 13  1  0
 15 14  2  0
 17 16  2  0
 21 16  1  0
 18 17  1  0
 19 18  2  0
 20 19  1  0
 31 19  1  0
 21 20  2  0
 22 20  1  0
 23 22  2  0
 24 22  1  0
 25 24  1  0
 26 25  2  0
 30 25  1  0
 27 26  1  0
 28 27  2  0
 29 28  1  0
 30 29  2  0
A    1
C1
A    2
N2
A    3
C3
A    4
C4
A    5
C5
A    6
N6
A    7
S7
A    8
O8
A    9
O9
A   10
C10
A   11
C11
A   12
C12
A   13
C13
A   14
C14
A   15
C15
A   16
C16
A   17
C17
A   18
N18
A   19
C19
A   20
C20
A   21
N21
A   22
C22
A   23
O23
A   24
N24
A   25
C25
A   26
C26
A   27
C27
A   28
C28
A   29
N29
A   30
C30
A   31
N31
M  END
>  <Id>  (45) 
4ACM_7YG_A_1302

>  <ChainId>  (45) 
A

>  <AsymId>  (45) 
D

>  <SeqNum>  (45) 
1302

>  <Name>  (45) 
3-AMINO-6-(4-{[2-(DIMETHYLAMINO)ETHYL]SULFAMOYL}PHENYL)-N-PYRIDIN-3-YLPYRAZINE-2-CARBOXAMIDE

>  <SystematicName>  (45) 
3-azanyl-6-[4-[2-(dimethylamino)ethylsulfamoyl]phenyl]-N-pyridin-3-yl-pyrazine-2-carboxamide

>  <Synonyms>  (45) 


>  <Type>  (45) 
non-polymer

>  <Formula>  (45) 
C20 H23 N7 O3 S

>  <ObservedFormula>  (45) 
C20 S N7 O3

>  <MolecularWeight>  (45) 
441.507

>  <ModifiedDate>  (45) 
2014-09-05

>  <Parent>  (45) 


>  <OneLetterCode>  (45) 


>  <SubcomponentList>  (45) 


>  <AmbiguousFlag>  (45) 
N

>  <InsertionCode>  (45) 


>  <InstanceId>  (45) 
4ACM_7YG_A_1302

>  <ChemCompId>  (45) 
7YG

>  <PdbId>  (45) 
4ACM

>  <ResidueNumber>  (45) 
1302

>  <InChI>  (45) 
InChI=1S/C20H23N7O3S/c1-27(2)11-10-24-31(29,30)16-7-5-14(6-8-16)17-13-23-19(21)18(26-17)20(28)25-15-4-3-9-22-12-15/h3-9,12-13,24H,10-11H2,1-2H3,(H2,21,23)(H,25,28)

>  <InChIKey>  (45) 
HULMMZPBCUBDJN-UHFFFAOYSA-N

>  <SMILES>  (45) 
CN(C)CCNS(=O)(=O)c1ccc(cc1)c2cnc(c(n2)C(=O)Nc3cccnc3)N

>  <MissingHeavyAtoms>  (45) 
0

>  <Model>  (45) 
1

>  <AltIds>  (45) 


>  <pKI>  (45) 
6.68

>  <ChemblID>  (45) 
-

>  <standardized_canonical_smiles>  (45) 
CN(C)CCNS(=O)(=O)c1ccc(-c2cnc(N)c(C(=O)Nc3cccnc3)n2)cc1

$$$$
1V1K_3FP_A_299
     RDKit          3D

 33 35  0  0  0  0  0  0  0  0999 V2000
   13.6820   -8.5830   13.3310 C   0  0  0  0  0  0  0  0  0  0  0  0
   11.9190  -10.3240   14.4390 N   0  0  0  0  0  0  0  0  0  0  0  0
   12.6230   -9.1040   12.5640 C   0  0  0  0  0  0  0  0  0  0  0  0
   14.2580   -5.4090    9.3020 C   0  0  0  0  0  0  0  0  0  0  0  0
   13.2990   -5.2970   10.3030 C   0  0  0  0  0  0  0  0  0  0  0  0
   13.4090   -6.0450   11.4740 C   0  0  0  0  0  0  0  0  0  0  0  0
   14.4870   -6.9260   11.6460 C   0  0  0  0  0  0  0  0  0  0  0  0
   11.7200  -10.0030   13.1650 C   0  0  0  0  0  0  0  0  0  0  0  0
    9.5630  -11.5030   10.5110 C   0  0  0  0  0  0  0  0  0  0  0  0
   10.1720  -10.4300   11.1890 C   0  0  0  0  0  0  0  0  0  0  0  0
   15.4470   -7.0190   10.6380 C   0  0  0  0  0  0  0  0  0  0  0  0
   15.3400   -6.2760    9.4650 C   0  0  0  0  0  0  0  0  0  0  0  0
    9.1030  -11.3750    9.1970 C   0  0  0  0  0  0  0  0  0  0  0  0
    9.2860  -10.5320    6.1020 C   0  0  0  0  0  0  0  0  0  0  0  0
    9.8250   -9.0790    9.2400 C   0  0  0  0  0  0  0  0  0  0  0  0
    9.2580  -10.1480    8.5420 C   0  0  0  0  0  0  0  0  0  0  0  0
   10.2890   -9.2010   10.5380 C   0  0  0  0  0  0  0  0  0  0  0  0
   12.9250   -9.8250   15.1460 C   0  0  0  0  0  0  0  0  0  0  0  0
   13.7980   -8.9810   14.6210 N   0  0  0  0  0  0  0  0  0  0  0  0
   14.6340   -7.6940   12.8110 N   0  0  0  0  0  0  0  0  0  0  0  0
   12.4700   -5.9310   12.4440 F   0  0  0  0  0  0  0  0  0  0  0  0
   10.6150  -10.5950   12.5240 N   0  0  0  0  0  0  0  0  0  0  0  0
    8.7970   -9.8710    7.2750 O   0  0  0  0  0  0  0  0  0  0  0  0
   16.4170   -6.4150    8.3870 C   0  0  0  0  0  0  0  0  0  0  0  0
   16.7700   -5.1930    7.7780 F   0  0  0  0  0  0  0  0  0  0  0  0
   17.5840   -6.8690    9.0030 F   0  0  0  0  0  0  0  0  0  0  0  0
   16.0260   -7.3450    7.3990 F   0  0  0  0  0  0  0  0  0  0  0  0
    8.5310   -9.8690    4.9180 C   0  0  0  0  0  0  0  0  0  0  0  0
    7.8630  -10.8470    3.9230 C   0  0  0  0  0  0  0  0  0  0  0  0
    5.8170  -11.4900    5.0570 C   0  0  0  0  0  0  0  0  0  0  0  0
    6.6690  -12.7830    3.3390 C   0  0  0  0  0  0  0  0  0  0  0  0
    7.0890  -11.9730    4.4970 N   0  0  0  0  0  0  0  0  0  0  0  0
    7.5400   -8.9230    5.3700 O   0  0  0  0  0  0  0  0  0  0  0  0
  3  1  2  0
 19  1  1  0
 20  1  1  0
  8  2  2  0
 18  2  1  0
  8  3  1  0
  5  4  2  0
 12  4  1  0
  6  5  1  0
  7  6  2  0
 21  6  1  0
 11  7  1  0
 20  7  1  0
 22  8  1  0
 10  9  2  0
 13  9  1  0
 17 10  1  0
 22 10  1  0
 12 11  2  0
 24 12  1  0
 16 13  2  0
 23 14  1  0
 28 14  1  0
 16 15  1  0
 17 15  2  0
 23 16  1  0
 19 18  2  0
 25 24  1  0
 26 24  1  0
 27 24  1  0
 29 28  1  0
 33 28  1  0
 32 29  1  0
 32 30  1  0
 32 31  1  0
A    1
C1
A    2
N1
A    3
C2
A    4
C7
A    5
C6
A    6
C5
A    7
C4
A    8
C3
A    9
C11
A   10
C10
A   11
C9
A   12
C8
A   13
C12
A   14
C16
A   15
C14
A   16
C13
A   17
C15
A   18
C
A   19
N
A   20
N2
A   21
F1
A   22
N3
A   23
O
A   24
C21
A   25
F2
A   26
F3
A   27
F4
A   28
C17
A   29
C18
A   30
C19
A   31
C20
A   32
N4
A   33
O1
M  END
>  <Id>  (46) 
1V1K_3FP_A_299

>  <ChainId>  (46) 
A

>  <AsymId>  (46) 
B

>  <SeqNum>  (46) 
299

>  <Name>  (46) 
(2R)-1-(DIMETHYLAMINO)-3-{4-[(6-{[2-FLUORO-5-(TRIFLUOROMETHYL)PHENYL]AMINO}PYRIMIDIN-4-YL)AMINO]PHENOXY}PROPAN-2-OL

>  <SystematicName>  (46) 
(2R)-1-dimethylamino-3-[4-[[6-[[2-fluoro-5-(trifluoromethyl)phenyl]amino]pyrimidin-4-yl]amino]phenoxy]propan-2-ol

>  <Synonyms>  (46) 
1-(DIMETHYLAMINO)-3-{4-[(6-{[2-FLUORO-5-(TRIFLUOROMETHYL)PHENYL]AMINO}PYRIMIDIN-4-YL)AMINO]PHENOXY}PROPAN-2-OL

>  <Type>  (46) 
NON-POLYMER

>  <Formula>  (46) 
C22 H23 F4 N5 O2

>  <ObservedFormula>  (46) 
C22 F4 N5 O2

>  <MolecularWeight>  (46) 
465.444

>  <ModifiedDate>  (46) 
2011-06-04

>  <Parent>  (46) 


>  <OneLetterCode>  (46) 


>  <SubcomponentList>  (46) 


>  <AmbiguousFlag>  (46) 
N

>  <InsertionCode>  (46) 


>  <InstanceId>  (46) 
1V1K_3FP_A_299

>  <ChemCompId>  (46) 
3FP

>  <PdbId>  (46) 
1V1K

>  <ResidueNumber>  (46) 
299

>  <InChI>  (46) 
InChI=1S/C22H23F4N5O2/c1-31(2)11-16(32)12-33-17-6-4-15(5-7-17)29-20-10-21(28-13-27-20)30-19-9-14(22(24,25)26)3-8-18(19)23/h3-10,13,16,32H,11-12H2,1-2H3,(H2,27,28,29,30)/t16-/m1/s1

>  <InChIKey>  (46) 
OSCWQKTUILTARV-MRXNPFEDSA-N

>  <SMILES>  (46) 
CN(C)C[C@H](COc1ccc(cc1)Nc2cc(ncn2)Nc3cc(ccc3F)C(F)(F)F)O

>  <MissingHeavyAtoms>  (46) 
0

>  <Model>  (46) 
1

>  <AltIds>  (46) 


>  <pKI>  (46) 
4.46

>  <ChemblID>  (46) 
-

>  <standardized_canonical_smiles>  (46) 
CN(C)C[C@@H](O)COc1ccc(Nc2cc(Nc3cc(C(F)(F)F)ccc3F)ncn2)cc1

$$$$
2XMY_CDK_A_500
     RDKit          3D

 29 31  0  0  0  0  0  0  0  0999 V2000
   29.4980   31.1520   26.4930 C   0  0  0  0  0  0  0  0  0  0  0  0
   28.6540   30.1220   25.7410 C   0  0  0  0  0  0  0  0  0  0  0  0
   29.1410   29.3670   24.7430 N   0  0  0  0  0  0  0  0  0  0  0  0
   30.5450   29.4560   24.2860 C   0  0  0  0  0  0  0  0  0  0  0  0
   28.2630   28.5150   24.1930 C   0  0  0  0  0  0  0  0  0  0  0  0
   28.5090   27.7220   23.2860 O   0  0  0  0  0  0  0  0  0  0  0  0
   26.7570   28.6600   24.9740 S   0  0  0  0  0  0  0  0  0  0  0  0
   27.3150   29.8520   26.0450 C   0  0  0  0  0  0  0  0  0  0  0  0
   26.5150   30.4950   26.9850 C   0  0  0  0  0  0  0  0  0  0  0  0
   25.5090   29.8410   27.5940 N   0  0  0  0  0  0  0  0  0  0  0  0
   26.7310   31.8440   27.2430 C   0  0  0  0  0  0  0  0  0  0  0  0
   25.9060   32.4940   28.1460 C   0  0  0  0  0  0  0  0  0  0  0  0
   24.9240   31.8210   28.7180 N   0  0  0  0  0  0  0  0  0  0  0  0
   24.7120   30.5280   28.4380 C   0  0  0  0  0  0  0  0  0  0  0  0
   23.7130   29.9770   29.1090 N   0  0  0  0  0  0  0  0  0  0  0  0
   23.1060   28.8330   28.8340 C   0  0  0  0  0  0  0  0  0  0  0  0
   22.1780   28.4250   29.7840 C   0  0  0  0  0  0  0  0  0  0  0  0
   21.4380   27.2680   29.6190 C   0  0  0  0  0  0  0  0  0  0  0  0
   23.2980   28.0950   27.6740 C   0  0  0  0  0  0  0  0  0  0  0  0
   22.5450   26.9330   27.4920 C   0  0  0  0  0  0  0  0  0  0  0  0
   21.6290   26.5230   28.4640 C   0  0  0  0  0  0  0  0  0  0  0  0
   20.6350   25.0970   28.2840 S   0  0  0  0  0  0  0  0  0  0  0  0
   19.4840   25.4450   27.3850 O   0  0  0  0  0  0  0  0  0  0  0  0
   20.0620   24.7470   29.6370 O   0  0  0  0  0  0  0  0  0  0  0  0
   21.4760   23.8290   27.6680 N   0  0  0  0  0  0  0  0  0  0  0  0
   20.6200   22.6290   27.6210 C   0  0  0  0  0  0  0  0  0  0  0  0
   20.7430   21.8030   28.9100 C   0  0  0  0  0  0  0  0  0  0  0  0
   19.6010   21.9430   29.7940 O   0  0  0  0  0  0  0  0  0  0  0  0
   19.2510   20.6700   30.3310 C   0  0  0  0  0  0  0  0  0  0  0  0
  2  1  1  0
  3  2  1  0
  8  2  2  0
  4  3  1  0
  5  3  1  0
  6  5  2  0
  7  5  1  0
  8  7  1  0
  9  8  1  0
 10  9  2  0
 11  9  1  0
 14 10  1  0
 12 11  2  0
 13 12  1  0
 14 13  2  0
 15 14  1  0
 16 15  1  0
 17 16  2  0
 19 16  1  0
 18 17  1  0
 21 18  2  0
 20 19  2  0
 21 20  1  0
 22 21  1  0
 23 22  2  0
 24 22  2  0
 25 22  1  0
 26 25  1  0
 27 26  1  0
 28 27  1  0
 29 28  1  0
A    1
C17
A    2
C16
A    3
N4
A    4
C13
A    5
C14
A    6
O3
A    7
S1
A    8
C15
A    9
C
A   10
N
A   11
C12
A   12
C11
A   13
N3
A   14
C1
A   15
N1
A   16
C2
A   17
C9
A   18
C10
A   19
C3
A   20
C4
A   21
C5
A   22
S
A   23
O1
A   24
O2
A   25
N2
A   26
C6
A   27
C7
A   28
O
A   29
C8
M  END
>  <Id>  (47) 
2XMY_CDK_A_500

>  <ChainId>  (47) 
A

>  <AsymId>  (47) 
B

>  <SeqNum>  (47) 
500

>  <Name>  (47) 
4-[4-(3,4-DIMETHYL-2-OXO-2,3-DIHYDRO-THIAZOL-5-YL)-PYRIMIDIN-2-YLAMINO]-N-(2-METHOXY-ETHYL)-BENZENESULFONAMIDE

>  <SystematicName>  (47) 
4-[[4-(3,4-dimethyl-2-oxo-1,3-thiazol-5-yl)pyrimidin-2-yl]amino]-N-(2-methoxyethyl)benzenesulfonamide

>  <Synonyms>  (47) 


>  <Type>  (47) 
non-polymer

>  <Formula>  (47) 
C18 H21 N5 O4 S2

>  <ObservedFormula>  (47) 
C18 S2 N5 O4

>  <MolecularWeight>  (47) 
435.52

>  <ModifiedDate>  (47) 
2011-06-04

>  <Parent>  (47) 


>  <OneLetterCode>  (47) 


>  <SubcomponentList>  (47) 


>  <AmbiguousFlag>  (47) 
N

>  <InsertionCode>  (47) 


>  <InstanceId>  (47) 
2XMY_CDK_A_500

>  <ChemCompId>  (47) 
CDK

>  <PdbId>  (47) 
2XMY

>  <ResidueNumber>  (47) 
500

>  <InChI>  (47) 
InChI=1S/C18H21N5O4S2/c1-12-16(28-18(24)23(12)2)15-8-9-19-17(22-15)21-13-4-6-14(7-5-13)29(25,26)20-10-11-27-3/h4-9,20H,10-11H2,1-3H3,(H,19,21,22)

>  <InChIKey>  (47) 
WQZVTNFUNLTGDW-UHFFFAOYSA-N

>  <SMILES>  (47) 
CC1=C(SC(=O)N1C)c2ccnc(n2)Nc3ccc(cc3)S(=O)(=O)NCCOC

>  <MissingHeavyAtoms>  (47) 
0

>  <Model>  (47) 
1

>  <AltIds>  (47) 


>  <pKI>  (47) 
9.96

>  <ChemblID>  (47) 
-

>  <standardized_canonical_smiles>  (47) 
COCCNS(=O)(=O)c1ccc(Nc2nccc(-c3sc(=O)n(C)c3C)n2)cc1

$$$$
1JSV_U55_A_400
     RDKit          3D

 18 19  0  0  0  0  0  0  0  0999 V2000
   14.2130    8.6870   24.6230 N   0  0  0  0  0  0  0  0  0  0  0  0
   13.4030    9.5650   23.9370 C   0  0  0  0  0  0  0  0  0  0  0  0
   13.7080    9.8330   22.6380 N   0  0  0  0  0  0  0  0  0  0  0  0
   12.8280   10.6440   21.9280 C   0  0  0  0  0  0  0  0  0  0  0  0
   11.7900   11.2960   22.4730 N   0  0  0  0  0  0  0  0  0  0  0  0
   12.2500   10.1510   24.5330 C   0  0  0  0  0  0  0  0  0  0  0  0
   11.4710   11.0590   23.8010 C   0  0  0  0  0  0  0  0  0  0  0  0
   10.4610   11.7520   24.3080 N   0  0  0  0  0  0  0  0  0  0  0  0
    9.6680   11.5140   25.3580 C   0  0  0  0  0  0  0  0  0  0  0  0
    8.8140   12.5290   25.8590 C   0  0  0  0  0  0  0  0  0  0  0  0
    8.0310   12.3130   27.0080 C   0  0  0  0  0  0  0  0  0  0  0  0
    9.6380   10.2460   25.9770 C   0  0  0  0  0  0  0  0  0  0  0  0
    8.8770   10.0340   27.1320 C   0  0  0  0  0  0  0  0  0  0  0  0
    8.0690   11.0510   27.6560 C   0  0  0  0  0  0  0  0  0  0  0  0
    6.8790   10.6850   28.8500 S   0  0  0  0  0  0  0  0  0  0  0  0
    5.9160    9.7910   28.2910 O   0  0  0  0  0  0  0  0  0  0  0  0
    6.1970   11.9810   29.1600 O   0  0  0  0  0  0  0  0  0  0  0  0
    7.4650   10.1110   30.2190 N   0  0  0  0  0  0  0  0  0  0  0  0
  2  1  1  0
  3  2  2  0
  6  2  1  0
  4  3  1  0
  5  4  2  0
  7  5  1  0
  7  6  2  0
  8  7  1  0
  9  8  1  0
 10  9  2  0
 12  9  1  0
 11 10  1  0
 14 11  2  0
 13 12  2  0
 14 13  1  0
 15 14  1  0
 16 15  2  0
 17 15  2  0
 18 15  1  0
A    1
N17
A    2
C11
A    3
N12
A    4
C13
A    5
N14
A    6
C16
A    7
C15
A    8
N18
A    9
C01
A   10
C06
A   11
C05
A   12
C02
A   13
C03
A   14
C04
A   15
S07
A   16
O08
A   17
O09
A   18
N10
M  END
>  <Id>  (48) 
1JSV_U55_A_400

>  <ChainId>  (48) 
A

>  <AsymId>  (48) 
B

>  <SeqNum>  (48) 
400

>  <Name>  (48) 
4-[(6-AMINO-4-PYRIMIDINYL)AMINO]BENZENESULFONAMIDE

>  <SystematicName>  (48) 
4-[(6-aminopyrimidin-4-yl)amino]benzenesulfonamide

>  <Synonyms>  (48) 


>  <Type>  (48) 
NON-POLYMER

>  <Formula>  (48) 
C10 H11 N5 O2 S

>  <ObservedFormula>  (48) 
C10 S N5 O2

>  <MolecularWeight>  (48) 
265.292

>  <ModifiedDate>  (48) 
2011-06-04

>  <Parent>  (48) 


>  <OneLetterCode>  (48) 


>  <SubcomponentList>  (48) 


>  <AmbiguousFlag>  (48) 
N

>  <InsertionCode>  (48) 


>  <InstanceId>  (48) 
1JSV_U55_A_400

>  <ChemCompId>  (48) 
U55

>  <PdbId>  (48) 
1JSV

>  <ResidueNumber>  (48) 
400

>  <InChI>  (48) 
InChI=1S/C10H11N5O2S/c11-9-5-10(14-6-13-9)15-7-1-3-8(4-2-7)18(12,16)17/h1-6H,(H2,12,16,17)(H3,11,13,14,15)

>  <InChIKey>  (48) 
FVFVVRPJERUECT-UHFFFAOYSA-N

>  <SMILES>  (48) 
c1cc(ccc1Nc2cc(ncn2)N)S(=O)(=O)N

>  <MissingHeavyAtoms>  (48) 
0

>  <Model>  (48) 
1

>  <AltIds>  (48) 


>  <pKI>  (48) 
5.7

>  <ChemblID>  (48) 
-

>  <standardized_canonical_smiles>  (48) 
Nc1cc(Nc2ccc(S(N)(=O)=O)cc2)ncn1

$$$$
1PYE_PM1_A_700
     RDKit          3D

 28 31  0  0  0  0  0  0  0  0999 V2000
   12.1640   -8.8880   22.8640 C   0  0  0  0  0  0  0  0  0  0  0  0
   13.0340   -9.2590   23.9350 C   0  0  0  0  0  0  0  0  0  0  0  0
   13.9760  -10.2500   23.8420 N   0  0  0  0  0  0  0  0  0  0  0  0
   14.1340  -10.9480   22.5960 C   0  0  0  0  0  0  0  0  0  0  0  0
   13.3150  -10.6450   21.5040 C   0  0  0  0  0  0  0  0  0  0  0  0
   12.3350   -9.6040   21.6290 C   0  0  0  0  0  0  0  0  0  0  0  0
   14.9410  -10.7780   24.7210 C   0  0  0  0  0  0  0  0  0  0  0  0
   15.5940  -11.7950   23.9830 C   0  0  0  0  0  0  0  0  0  0  0  0
   15.1130  -11.8720   22.7300 N   0  0  0  0  0  0  0  0  0  0  0  0
   15.2930  -10.4970   26.1290 C   0  0  0  0  0  0  0  0  0  0  0  0
   14.6600   -9.4620   26.9840 C   0  0  0  0  0  0  0  0  0  0  0  0
   13.3970   -9.7370   27.6360 C   0  0  0  0  0  0  0  0  0  0  0  0
   12.7780   -8.7330   28.4710 C   0  0  0  0  0  0  0  0  0  0  0  0
   13.4230   -7.4700   28.6490 C   0  0  0  0  0  0  0  0  0  0  0  0
   14.6680   -7.1930   28.0000 C   0  0  0  0  0  0  0  0  0  0  0  0
   15.2930   -8.1840   27.1670 C   0  0  0  0  0  0  0  0  0  0  0  0
   11.1070   -7.7970   22.9750 C   0  0  0  0  0  0  0  0  0  0  0  0
   10.9440   -7.0500   24.3110 C   0  0  0  0  0  0  0  0  0  0  0  0
    9.7520   -7.2480   25.0880 C   0  0  0  0  0  0  0  0  0  0  0  0
    9.5190   -6.5890   26.3420 C   0  0  0  0  0  0  0  0  0  0  0  0
   10.4960   -5.6770   26.8580 C   0  0  0  0  0  0  0  0  0  0  0  0
   11.7070   -5.4310   26.1370 C   0  0  0  0  0  0  0  0  0  0  0  0
   11.9280   -6.0940   24.8830 C   0  0  0  0  0  0  0  0  0  0  0  0
   10.3790   -7.5170   21.9890 O   0  0  0  0  0  0  0  0  0  0  0  0
   16.2190  -11.1720   26.6280 O   0  0  0  0  0  0  0  0  0  0  0  0
   16.6740  -12.6470   24.4810 N   0  0  0  0  0  0  0  0  0  0  0  0
    8.8000   -8.0830   24.6690 F   0  0  0  0  0  0  0  0  0  0  0  0
   13.0910   -5.8090   24.2780 F   0  0  0  0  0  0  0  0  0  0  0  0
  2  1  2  0
  6  1  1  0
 17  1  1  0
  3  2  1  0
  4  3  1  0
  7  3  1  0
  5  4  1  0
  9  4  2  0
  6  5  2  0
  8  7  2  0
 10  7  1  0
  9  8  1  0
 26  8  1  0
 11 10  1  0
 25 10  2  0
 12 11  2  0
 16 11  1  0
 13 12  1  0
 14 13  2  0
 15 14  1  0
 16 15  2  0
 18 17  1  0
 24 17  2  0
 19 18  2  0
 23 18  1  0
 20 19  1  0
 27 19  1  0
 21 20  2  0
 22 21  1  0
 23 22  2  0
 28 23  1  0
A    1
C1
A    2
C2
A    3
N3
A    4
C4
A    5
C5
A    6
C6
A    7
C10
A    8
C11
A    9
N12
A   10
C13
A   11
C14
A   12
C15
A   13
C16
A   14
C17
A   15
C18
A   16
C19
A   17
C23
A   18
C24
A   19
C25
A   20
C26
A   21
C27
A   22
C28
A   23
C29
A   24
O33
A   25
O34
A   26
N35
A   27
F36
A   28
F39
M  END
>  <Id>  (49) 
1PYE_PM1_A_700

>  <ChainId>  (49) 
A

>  <AsymId>  (49) 
B

>  <SeqNum>  (49) 
700

>  <Name>  (49) 
[2-AMINO-6-(2,6-DIFLUORO-BENZOYL)-IMIDAZO[1,2-A]PYRIDIN-3-YL]-PHENYL-METHANONE

>  <SystematicName>  (49) 
[2-amino-6-(2,6-difluorophenyl)carbonyl-imidazo[3,2-a]pyridin-3-yl]-phenyl-methanone

>  <Synonyms>  (49) 


>  <Type>  (49) 
NON-POLYMER

>  <Formula>  (49) 
C21 H13 F2 N3 O2

>  <ObservedFormula>  (49) 
C21 F2 N3 O2

>  <MolecularWeight>  (49) 
377.344

>  <ModifiedDate>  (49) 
2011-06-04

>  <Parent>  (49) 


>  <OneLetterCode>  (49) 


>  <SubcomponentList>  (49) 


>  <AmbiguousFlag>  (49) 
N

>  <InsertionCode>  (49) 


>  <InstanceId>  (49) 
1PYE_PM1_A_700

>  <ChemCompId>  (49) 
PM1

>  <PdbId>  (49) 
1PYE

>  <ResidueNumber>  (49) 
700

>  <InChI>  (49) 
InChI=1S/C21H13F2N3O2/c22-14-7-4-8-15(23)17(14)19(27)13-9-10-16-25-21(24)18(26(16)11-13)20(28)12-5-2-1-3-6-12/h1-11H,24H2

>  <InChIKey>  (49) 
WUGJIPFLBOATGL-UHFFFAOYSA-N

>  <SMILES>  (49) 
c1ccc(cc1)C(=O)c2c(nc3n2cc(cc3)C(=O)c4c(cccc4F)F)N

>  <MissingHeavyAtoms>  (49) 
0

>  <Model>  (49) 
1

>  <AltIds>  (49) 


>  <pKI>  (49) 
6.41

>  <ChemblID>  (49) 
-

>  <standardized_canonical_smiles>  (49) 
Nc1nc2ccc(C(=O)c3c(F)cccc3F)cn2c1C(=O)c1ccccc1

$$$$
1H1P_CMG_C_1298
     RDKit          3D

 18 20  0  0  0  0  0  0  0  0999 V2000
   33.8360   83.2690  -15.4560 N   0  0  0  0  0  0  0  0  0  0  0  0
   34.6690   83.9110  -14.4470 C   0  0  0  0  0  0  0  0  0  0  0  0
   35.4070   83.1410  -13.6980 N   0  0  0  0  0  0  0  0  0  0  0  0
   35.3720   81.7210  -13.9170 C   0  0  0  0  0  0  0  0  0  0  0  0
   34.6200   81.1880  -14.8910 C   0  0  0  0  0  0  0  0  0  0  0  0
   33.7880   82.0440  -15.7320 C   0  0  0  0  0  0  0  0  0  0  0  0
   33.0240   81.5100  -16.6870 O   0  0  0  0  0  0  0  0  0  0  0  0
   32.4110   82.5510  -17.5380 C   0  0  0  0  0  0  0  0  0  0  0  0
   34.8810   79.7680  -14.8410 N   0  0  0  0  0  0  0  0  0  0  0  0
   35.7310   79.6320  -13.9170 C   0  0  0  0  0  0  0  0  0  0  0  0
   36.0640   80.7850  -13.3080 N   0  0  0  0  0  0  0  0  0  0  0  0
   34.5520   85.2040  -14.3950 N   0  0  0  0  0  0  0  0  0  0  0  0
   31.7140   81.6720  -18.6230 C   0  0  0  0  0  0  0  0  0  0  0  0
   31.0610   82.5100  -19.7500 C   0  0  0  0  0  0  0  0  0  0  0  0
   30.4000   81.5840  -20.8230 C   0  0  0  0  0  0  0  0  0  0  0  0
   29.3610   80.6560  -20.1020 C   0  0  0  0  0  0  0  0  0  0  0  0
   30.1170   79.7240  -19.0910 C   0  0  0  0  0  0  0  0  0  0  0  0
   30.8360   80.5820  -17.9950 C   0  0  0  0  0  0  0  0  0  0  0  0
  2  1  2  0
  6  1  1  0
  3  2  1  0
 12  2  1  0
  4  3  2  0
  5  4  1  0
 11  4  1  0
  6  5  2  0
  9  5  1  0
  7  6  1  0
  8  7  1  0
 13  8  1  0
 10  9  2  0
 11 10  1  0
 14 13  1  0
 18 13  1  0
 15 14  1  0
 16 15  1  0
 17 16  1  0
 18 17  1  0
A    1
N1
A    2
C2
A    3
N3
A    4
C4
A    5
C5
A    6
C6
A    7
O6
A    8
C9
A    9
N7
A   10
C8
A   11
N9
A   12
N2
A   13
C10
A   14
C11
A   15
C12
A   16
C13
A   17
C14
A   18
C15
M  END
>  <Id>  (50) 
1H1P_CMG_C_1298

>  <ChainId>  (50) 
C

>  <AsymId>  (50) 
F

>  <SeqNum>  (50) 
1298

>  <Name>  (50) 
6-O-CYCLOHEXYLMETHYL GUANINE

>  <SystematicName>  (50) 
6-(cyclohexylmethoxy)-9H-purin-2-amine

>  <Synonyms>  (50) 


>  <Type>  (50) 
NON-POLYMER

>  <Formula>  (50) 
C12 H17 N5 O

>  <ObservedFormula>  (50) 
C12 N5 O

>  <MolecularWeight>  (50) 
247.296

>  <ModifiedDate>  (50) 
2011-06-04

>  <Parent>  (50) 


>  <OneLetterCode>  (50) 


>  <SubcomponentList>  (50) 


>  <AmbiguousFlag>  (50) 
N

>  <InsertionCode>  (50) 


>  <InstanceId>  (50) 
1H1P_CMG_C_1298

>  <ChemCompId>  (50) 
CMG

>  <PdbId>  (50) 
1H1P

>  <ResidueNumber>  (50) 
1298

>  <InChI>  (50) 
InChI=1S/C12H17N5O/c13-12-16-10-9(14-7-15-10)11(17-12)18-6-8-4-2-1-3-5-8/h7-8H,1-6H2,(H3,13,14,15,16,17)

>  <InChIKey>  (50) 
MWGXGTJJAOZBNW-UHFFFAOYSA-N

>  <SMILES>  (50) 
c1[nH]c2c(n1)c(nc(n2)N)OCC3CCCCC3

>  <MissingHeavyAtoms>  (50) 
0

>  <Model>  (50) 
1

>  <AltIds>  (50) 


>  <pKI>  (50) 
4.92

>  <ChemblID>  (50) 
-

>  <standardized_canonical_smiles>  (50) 
Nc1nc(OCC2CCCCC2)c2nc[nH]c2n1

$$$$
1E1V_CMG_A_401
     RDKit          3D

 18 20  0  0  0  0  0  0  0  0999 V2000
    2.4450   28.9910    7.3460 N   0  0  0  0  0  0  0  0  0  0  0  0
    2.9810   29.9600    6.6140 C   0  0  0  0  0  0  0  0  0  0  0  0
    2.3900   31.1700    6.6090 N   0  0  0  0  0  0  0  0  0  0  0  0
    1.3010   31.4190    7.3260 C   0  0  0  0  0  0  0  0  0  0  0  0
    0.7490   30.4080    8.0490 C   0  0  0  0  0  0  0  0  0  0  0  0
    1.3270   29.1410    8.0570 C   0  0  0  0  0  0  0  0  0  0  0  0
    0.7220   28.1600    8.8410 O   0  0  0  0  0  0  0  0  0  0  0  0
    1.7060   27.1180    9.1120 C   0  0  0  0  0  0  0  0  0  0  0  0
   -0.2920   31.0010    8.6180 N   0  0  0  0  0  0  0  0  0  0  0  0
   -0.4920   32.3190    8.2780 C   0  0  0  0  0  0  0  0  0  0  0  0
    0.5880   32.5280    7.4900 N   0  0  0  0  0  0  0  0  0  0  0  0
    4.1220   29.9810    5.8800 N   0  0  0  0  0  0  0  0  0  0  0  0
    0.9790   26.3030   10.2570 C   0  0  0  0  0  0  0  0  0  0  0  0
   -0.2230   25.5700    9.5700 C   0  0  0  0  0  0  0  0  0  0  0  0
   -0.7780   24.5780   10.5920 C   0  0  0  0  0  0  0  0  0  0  0  0
    0.1720   23.3870   10.3210 C   0  0  0  0  0  0  0  0  0  0  0  0
    1.3640   23.9990   11.1710 C   0  0  0  0  0  0  0  0  0  0  0  0
    1.8480   25.0470   10.1260 C   0  0  0  0  0  0  0  0  0  0  0  0
  2  1  2  0
  6  1  1  0
  3  2  1  0
 12  2  1  0
  4  3  2  0
  5  4  1  0
 11  4  1  0
  6  5  2  0
  9  5  1  0
  7  6  1  0
  8  7  1  0
 13  8  1  0
 10  9  2  0
 11 10  1  0
 14 13  1  0
 18 13  1  0
 15 14  1  0
 16 15  1  0
 17 16  1  0
 18 17  1  0
A    1
N1
A    2
C2
A    3
N3
A    4
C4
A    5
C5
A    6
C6
A    7
O6
A    8
C9
A    9
N7
A   10
C8
A   11
N9
A   12
N2
A   13
C10
A   14
C11
A   15
C12
A   16
C13
A   17
C14
A   18
C15
M  END
>  <Id>  (51) 
1E1V_CMG_A_401

>  <ChainId>  (51) 
A

>  <AsymId>  (51) 
B

>  <SeqNum>  (51) 
401

>  <Name>  (51) 
6-O-CYCLOHEXYLMETHYL GUANINE

>  <SystematicName>  (51) 
6-(cyclohexylmethoxy)-9H-purin-2-amine

>  <Synonyms>  (51) 


>  <Type>  (51) 
NON-POLYMER

>  <Formula>  (51) 
C12 H17 N5 O

>  <ObservedFormula>  (51) 
C12 N5 O

>  <MolecularWeight>  (51) 
247.296

>  <ModifiedDate>  (51) 
2011-06-04

>  <Parent>  (51) 


>  <OneLetterCode>  (51) 


>  <SubcomponentList>  (51) 


>  <AmbiguousFlag>  (51) 
N

>  <InsertionCode>  (51) 


>  <InstanceId>  (51) 
1E1V_CMG_A_401

>  <ChemCompId>  (51) 
CMG

>  <PdbId>  (51) 
1E1V

>  <ResidueNumber>  (51) 
401

>  <InChI>  (51) 
InChI=1S/C12H17N5O/c13-12-16-10-9(14-7-15-10)11(17-12)18-6-8-4-2-1-3-5-8/h7-8H,1-6H2,(H3,13,14,15,16,17)

>  <InChIKey>  (51) 
MWGXGTJJAOZBNW-UHFFFAOYSA-N

>  <SMILES>  (51) 
c1[nH]c2c(n1)c(nc(n2)N)OCC3CCCCC3

>  <MissingHeavyAtoms>  (51) 
0

>  <Model>  (51) 
1

>  <AltIds>  (51) 


>  <pKI>  (51) 
4.92

>  <ChemblID>  (51) 
-

>  <standardized_canonical_smiles>  (51) 
Nc1nc(OCC2CCCCC2)c2nc[nH]c2n1

$$$$
