1ZZQ_DP9_B_800
     RDKit          3D

 23 23  0  0  0  0  0  0  0  0999 V2000
   11.3670   -1.2510   58.6460 N   0  0  0  0  0  0  0  0  0  0  0  0
   11.9750   -0.1400   59.0760 C   0  0  0  0  0  0  0  0  0  0  0  0
   11.6240    0.4620   60.2140 N   0  0  0  0  0  0  0  0  0  0  0  0
   10.5730    0.2410   61.0300 N   0  0  0  0  0  0  0  0  0  0  0  0
   10.2030    1.1920   61.8060 O   0  0  0  0  0  0  0  0  0  0  0  0
    9.9310   -0.8680   61.0600 O   0  0  0  0  0  0  0  0  0  0  0  0
   12.9490    0.3330   58.2990 N   0  0  0  0  0  0  0  0  0  0  0  0
   13.8320    1.5060   58.4230 C   0  0  0  0  0  0  0  0  0  0  0  0
   15.1160    1.1360   59.1870 C   0  0  0  0  0  0  0  0  0  0  0  0
   16.0360    0.1310   58.4400 C   0  0  0  0  0  0  0  0  0  0  0  0
   16.5380    0.5970   57.0380 C   0  0  0  0  0  0  0  0  0  0  0  0
   16.6750   -0.6340   56.2210 N   0  0  0  0  0  0  0  0  0  0  0  0
   17.8670    1.4090   57.0720 C   0  0  0  0  0  0  0  0  0  0  0  0
   18.9600    0.8370   57.1870 O   0  0  0  0  0  0  0  0  0  0  0  0
   17.7400    2.7410   56.9640 N   0  0  0  0  0  0  0  0  0  0  0  0
   18.8460    3.7780   57.0430 C   0  0  0  0  0  0  0  0  0  0  0  0
   19.9110    3.6840   55.9250 C   0  0  0  0  0  0  0  0  0  0  0  0
   19.2940    4.4950   54.8530 N   0  0  0  0  0  0  0  0  0  0  0  0
   18.2920    5.4580   55.3670 C   0  0  0  0  0  0  0  0  0  0  0  0
   18.8530    6.8400   54.9700 C   0  0  0  0  0  0  0  0  0  0  0  0
   20.0470    7.0100   54.7320 O   0  0  0  0  0  0  0  0  0  0  0  0
   18.0690    7.8940   54.8660 N   0  0  0  0  0  0  0  0  0  0  0  0
   18.3290    5.2100   56.8820 C   0  0  0  0  0  0  0  0  0  0  0  0
  2  1  2  0
  3  2  1  0
  7  2  1  0
  4  3  1  0
  5  4  1  0
  6  4  2  0
  8  7  1  0
  9  8  1  0
 10  9  1  0
 11 10  1  0
 12 11  1  0
 13 11  1  0
 14 13  2  0
 15 13  1  0
 16 15  1  0
 17 16  1  0
 23 16  1  0
 18 17  1  0
 19 18  1  0
 20 19  1  0
 23 19  1  0
 21 20  2  0
 22 20  1  0
M  CHG  2   4   1   5  -1
A    1
NH2
A    2
CZ
A    3
NH1
A    4
NO
A    5
O2
A    6
O3
A    7
NE
A    8
CD
A    9
CG
A   10
CB
A   11
CA
A   12
N
A   13
C
A   14
O
A   15
N2'
A   16
CG'
A   17
CD'
A   18
N'
A   19
CA'
A   20
C'
A   21
O'
A   22
N1'
A   23
CB'
M  END
>  <Id>  (1) 
1ZZQ_DP9_B_800

>  <ChainId>  (1) 
B

>  <AsymId>  (1) 
M

>  <SeqNum>  (1) 
800

>  <Name>  (1) 
L-N(OMEGA)-NITROARGININE-(4R)-AMINO-L-PROLINE AMIDE

>  <SystematicName>  (1) 
(2S,4R)-4-[[(2S)-2-amino-5-[(N-nitrocarbamimidoyl)amino]pentanoyl]amino]pyrrolidine-2-carboxamide

>  <Synonyms>  (1) 


>  <Type>  (1) 
NON-POLYMER

>  <Formula>  (1) 
C11 H22 N8 O4

>  <ObservedFormula>  (1) 
C11 N8 O4

>  <MolecularWeight>  (1) 
330.344

>  <ModifiedDate>  (1) 
2011-06-04

>  <Parent>  (1) 


>  <OneLetterCode>  (1) 


>  <SubcomponentList>  (1) 


>  <AmbiguousFlag>  (1) 
N

>  <InsertionCode>  (1) 


>  <InstanceId>  (1) 
1ZZQ_DP9_B_800

>  <ChemCompId>  (1) 
DP9

>  <PdbId>  (1) 
1ZZQ

>  <ResidueNumber>  (1) 
800

>  <InChI>  (1) 
InChI=1S/C11H22N8O4/c12-7(2-1-3-15-11(14)18-19(22)23)10(21)17-6-4-8(9(13)20)16-5-6/h6-8,16H,1-5,12H2,(H2,13,20)(H,17,21)(H3,14,15,18)/t6-,7+,8+/m1/s1

>  <InChIKey>  (1) 
IUFRDGFKAVLPFZ-CSMHCCOUSA-N

>  <SMILES>  (1) 
C1[C@H](CN[C@@H]1C(=O)N)NC(=O)[C@H](CCCNC(=N)N[N+](=O)[O-])N

>  <MissingHeavyAtoms>  (1) 
0

>  <Model>  (1) 
1

>  <AltIds>  (1) 


>  <pKI>  (1) 
5.96

>  <ChemblID>  (1) 
CHEMBL1169419

>  <standardized_canonical_smiles>  (1) 
N=C(NCCC[C@H](N)C(=O)N[C@@H]1CN[C@@H](C(N)=O)C1)N[N+](=O)[O-]

$$$$
1P6J_DP9_B_800
     RDKit          3D

 23 23  0  0  0  0  0  0  0  0999 V2000
   11.4340   -1.4580   58.6720 N   0  0  0  0  0  0  0  0  0  0  0  0
   11.9960   -0.3200   59.0850 C   0  0  0  0  0  0  0  0  0  0  0  0
   11.6070    0.3070   60.1950 N   0  0  0  0  0  0  0  0  0  0  0  0
   10.6580    0.0040   61.0990 N   0  0  0  0  0  0  0  0  0  0  0  0
   10.3450    0.9100   61.9510 O   0  0  0  0  0  0  0  0  0  0  0  0
   10.0990   -1.0660   61.1450 O   0  0  0  0  0  0  0  0  0  0  0  0
   12.9720    0.1640   58.3280 N   0  0  0  0  0  0  0  0  0  0  0  0
   13.8060    1.3690   58.4650 C   0  0  0  0  0  0  0  0  0  0  0  0
   15.0920    1.0310   59.2340 C   0  0  0  0  0  0  0  0  0  0  0  0
   15.9850    0.0010   58.5020 C   0  0  0  0  0  0  0  0  0  0  0  0
   16.5820    0.5070   57.1650 C   0  0  0  0  0  0  0  0  0  0  0  0
   16.6980   -0.6630   56.2940 N   0  0  0  0  0  0  0  0  0  0  0  0
   17.9370    1.2390   57.3280 C   0  0  0  0  0  0  0  0  0  0  0  0
   18.9740    0.6060   57.5520 O   0  0  0  0  0  0  0  0  0  0  0  0
   17.8930    2.5740   57.2190 N   0  0  0  0  0  0  0  0  0  0  0  0
   19.0600    3.5290   57.1950 C   0  0  0  0  0  0  0  0  0  0  0  0
   20.0240    3.3420   55.9860 C   0  0  0  0  0  0  0  0  0  0  0  0
   19.4470    4.2510   54.9620 N   0  0  0  0  0  0  0  0  0  0  0  0
   18.5720    5.2760   55.5600 C   0  0  0  0  0  0  0  0  0  0  0  0
   18.9890    6.7100   55.1850 C   0  0  0  0  0  0  0  0  0  0  0  0
   20.1040    6.9680   54.7230 O   0  0  0  0  0  0  0  0  0  0  0  0
   18.1590    7.7280   55.3500 N   0  0  0  0  0  0  0  0  0  0  0  0
   18.6150    5.0000   57.0690 C   0  0  0  0  0  0  0  0  0  0  0  0
  2  1  2  0
  3  2  1  0
  7  2  1  0
  4  3  1  0
  5  4  1  0
  6  4  2  0
  8  7  1  0
  9  8  1  0
 10  9  1  0
 11 10  1  0
 12 11  1  0
 13 11  1  0
 14 13  2  0
 15 13  1  0
 16 15  1  0
 17 16  1  0
 23 16  1  0
 18 17  1  0
 19 18  1  0
 20 19  1  0
 23 19  1  0
 21 20  2  0
 22 20  1  0
M  CHG  2   4   1   5  -1
A    1
NH2
A    2
CZ
A    3
NH1
A    4
NO
A    5
O2
A    6
O3
A    7
NE
A    8
CD
A    9
CG
A   10
CB
A   11
CA
A   12
N
A   13
C
A   14
O
A   15
N2'
A   16
CG'
A   17
CD'
A   18
N'
A   19
CA'
A   20
C'
A   21
O'
A   22
N1'
A   23
CB'
M  END
>  <Id>  (2) 
1P6J_DP9_B_800

>  <ChainId>  (2) 
B

>  <AsymId>  (2) 
K

>  <SeqNum>  (2) 
800

>  <Name>  (2) 
L-N(OMEGA)-NITROARGININE-(4R)-AMINO-L-PROLINE AMIDE

>  <SystematicName>  (2) 
(2S,4R)-4-[[(2S)-2-amino-5-[(N-nitrocarbamimidoyl)amino]pentanoyl]amino]pyrrolidine-2-carboxamide

>  <Synonyms>  (2) 


>  <Type>  (2) 
NON-POLYMER

>  <Formula>  (2) 
C11 H22 N8 O4

>  <ObservedFormula>  (2) 
C11 N8 O4

>  <MolecularWeight>  (2) 
330.344

>  <ModifiedDate>  (2) 
2011-06-04

>  <Parent>  (2) 


>  <OneLetterCode>  (2) 


>  <SubcomponentList>  (2) 


>  <AmbiguousFlag>  (2) 
N

>  <InsertionCode>  (2) 


>  <InstanceId>  (2) 
1P6J_DP9_B_800

>  <ChemCompId>  (2) 
DP9

>  <PdbId>  (2) 
1P6J

>  <ResidueNumber>  (2) 
800

>  <InChI>  (2) 
InChI=1S/C11H22N8O4/c12-7(2-1-3-15-11(14)18-19(22)23)10(21)17-6-4-8(9(13)20)16-5-6/h6-8,16H,1-5,12H2,(H2,13,20)(H,17,21)(H3,14,15,18)/t6-,7+,8+/m1/s1

>  <InChIKey>  (2) 
IUFRDGFKAVLPFZ-CSMHCCOUSA-N

>  <SMILES>  (2) 
C1[C@H](CN[C@@H]1C(=O)N)NC(=O)[C@H](CCCNC(=N)N[N+](=O)[O-])N

>  <MissingHeavyAtoms>  (2) 
0

>  <Model>  (2) 
1

>  <AltIds>  (2) 


>  <pKI>  (2) 
5.96

>  <ChemblID>  (2) 
CHEMBL1169419

>  <standardized_canonical_smiles>  (2) 
N=C(NCCC[C@H](N)C(=O)N[C@@H]1CN[C@@H](C(N)=O)C1)N[N+](=O)[O-]

$$$$
1ZZR_DP9_B_800
     RDKit          3D

 23 23  0  0  0  0  0  0  0  0999 V2000
   16.9970   -0.5490   56.5550 N   0  0  0  0  0  0  0  0  0  0  0  0
   10.0180   -0.5940   61.1580 O   0  0  0  0  0  0  0  0  0  0  0  0
   11.5780   -1.1560   58.8540 N   0  0  0  0  0  0  0  0  0  0  0  0
   11.8470    0.5770   60.4120 N   0  0  0  0  0  0  0  0  0  0  0  0
   13.1270    0.4620   58.4950 N   0  0  0  0  0  0  0  0  0  0  0  0
   20.2290    7.1190   55.2040 O   0  0  0  0  0  0  0  0  0  0  0  0
   15.2630    1.3040   59.3840 C   0  0  0  0  0  0  0  0  0  0  0  0
   18.4690    5.5750   55.8870 C   0  0  0  0  0  0  0  0  0  0  0  0
   19.1220    0.9100   57.7540 O   0  0  0  0  0  0  0  0  0  0  0  0
   10.5720    1.3180   62.1060 O   0  0  0  0  0  0  0  0  0  0  0  0
   16.1020    0.2190   58.6700 C   0  0  0  0  0  0  0  0  0  0  0  0
   18.6760    5.3050   57.3960 C   0  0  0  0  0  0  0  0  0  0  0  0
   17.9540    2.8380   57.4760 N   0  0  0  0  0  0  0  0  0  0  0  0
   19.0180    6.9370   55.4020 C   0  0  0  0  0  0  0  0  0  0  0  0
   19.1140    3.8250   57.4680 C   0  0  0  0  0  0  0  0  0  0  0  0
   12.1770   -0.0280   59.2730 C   0  0  0  0  0  0  0  0  0  0  0  0
   19.3580    4.5610   55.2520 N   0  0  0  0  0  0  0  0  0  0  0  0
   18.2020    7.9610   55.1540 N   0  0  0  0  0  0  0  0  0  0  0  0
   18.0550    1.4990   57.5380 C   0  0  0  0  0  0  0  0  0  0  0  0
   10.7960    0.4130   61.2230 N   0  0  0  0  0  0  0  0  0  0  0  0
   16.7480    0.6850   57.3400 C   0  0  0  0  0  0  0  0  0  0  0  0
   20.0500    3.7000   56.2420 C   0  0  0  0  0  0  0  0  0  0  0  0
   13.9790    1.6590   58.6270 C   0  0  0  0  0  0  0  0  0  0  0  0
 15 22  1  0
 15 12  1  0
 21 19  1  0
 20  2  2  0
 23  7  1  0
  3 16  2  0
  5 23  1  0
  8 14  1  0
 22 17  1  0
  4 20  1  0
 16  4  1  0
 14  6  2  0
 14 18  1  0
  8 12  1  0
 21  1  1  0
 11 21  1  0
 19 13  1  0
 19  9  2  0
 13 15  1  0
 16  5  1  0
 20 10  1  0
  7 11  1  0
 17  8  1  0
M  CHG  2  10  -1  20   1
A    1
N
A    2
O3
A    3
NH2
A    4
NH1
A    5
NE
A    6
O'
A    7
CG
A    8
CA'
A    9
O
A   10
O2
A   11
CB
A   12
CB'
A   13
N2'
A   14
C'
A   15
CG'
A   16
CZ
A   17
N'
A   18
N1'
A   19
C
A   20
NO
A   21
CA
A   22
CD'
A   23
CD
M  END
>  <InstanceId>  (3) 
1ZZR_DP9_B_800

>  <ChemCompId>  (3) 
DP9

>  <PdbId>  (3) 
1ZZR

>  <ChainId>  (3) 
B

>  <ResidueNumber>  (3) 
800

>  <InsertionCode>  (3) 


>  <Model>  (3) 
1

>  <AltIds>  (3) 


>  <MissingHeavyAtoms>  (3) 
0

>  <ObservedFormula>  (3) 
C11 N8 O4

>  <AsymId>  (3) 
J

>  <SeqNum>  (3) 
800

>  <Name>  (3) 
L-N(OMEGA)-NITROARGININE-(4R)-AMINO-L-PROLINE AMIDE

>  <SystematicName>  (3) 
(2S,4R)-4-[[(2S)-2-amino-5-[(N-nitrocarbamimidoyl)amino]pentanoyl]amino]pyrrolidine-2-carboxamide

>  <Synonyms>  (3) 


>  <Type>  (3) 
NON-POLYMER

>  <Formula>  (3) 
C11 H22 N8 O4

>  <MolecularWeight>  (3) 
330.344

>  <ModifiedDate>  (3) 
2011-06-04

>  <Parent>  (3) 


>  <OneLetterCode>  (3) 


>  <SubcomponentList>  (3) 


>  <AmbiguousFlag>  (3) 
N

>  <InChI>  (3) 
null

>  <InChIKey>  (3) 
null

>  <SMILES>  (3) 
C1[C@H](CN[C@@H]1C(=O)N)NC(=O)[C@H](CCCNC(=N)N[N+](=O)[O-])N

>  <pKI>  (3) 
5.96

>  <ChemblID>  (3) 
CHEMBL1169419

>  <standardized_canonical_smiles>  (3) 
N=C(NCCC[C@H](N)C(=O)N[C@@H]1CN[C@@H](C(N)=O)C1)N[N+](=O)[O-]

$$$$
1K2R_NRG_B_2775
     RDKit          3D

 15 14  0  0  0  0  0  0  0  0999 V2000
   16.3260   -0.0660   56.3080 N   0  0  0  0  0  0  0  0  0  0  0  0
   16.8590   -0.1600   57.6950 C   0  0  0  0  0  0  0  0  0  0  0  0
   15.7130   -0.0180   58.7040 C   0  0  0  0  0  0  0  0  0  0  0  0
   14.9460    1.2960   58.6100 C   0  0  0  0  0  0  0  0  0  0  0  0
   13.6810    1.2120   59.4360 C   0  0  0  0  0  0  0  0  0  0  0  0
   12.8160    0.1420   58.9510 N   0  0  0  0  0  0  0  0  0  0  0  0
   11.6330   -0.1640   59.4350 C   0  0  0  0  0  0  0  0  0  0  0  0
   11.0640    0.5990   60.3610 N   0  0  0  0  0  0  0  0  0  0  0  0
   11.0030   -1.2430   58.9700 N   0  0  0  0  0  0  0  0  0  0  0  0
   17.5200   -1.4960   57.9010 C   0  0  0  0  0  0  0  0  0  0  0  0
   18.0230   -1.7360   59.0190 O   0  0  0  0  0  0  0  0  0  0  0  0
   17.5280   -2.2990   56.9450 O   0  0  0  0  0  0  0  0  0  0  0  0
   10.1790    0.1160   61.3610 N   0  0  0  0  0  0  0  0  0  0  0  0
    9.9810    0.7990   62.3170 O   0  0  0  0  0  0  0  0  0  0  0  0
    9.6350   -0.9710   61.2410 O   0  0  0  0  0  0  0  0  0  0  0  0
  2  1  1  0
  3  2  1  0
 10  2  1  0
  4  3  1  0
  5  4  1  0
  6  5  1  0
  7  6  1  0
  8  7  1  0
  9  7  2  0
 13  8  1  0
 11 10  2  0
 12 10  1  0
 14 13  1  0
 15 13  2  0
M  CHG  2  13   1  14  -1
A    1
N
A    2
CA
A    3
CB
A    4
CG
A    5
CD
A    6
NE
A    7
CZ
A    8
NH1
A    9
NH2
A   10
C
A   11
OA1
A   12
OA2
A   13
N1
A   14
O2
A   15
O3
M  END
>  <Id>  (4) 
1K2R_NRG_B_2775

>  <ChainId>  (4) 
B

>  <AsymId>  (4) 
K

>  <SeqNum>  (4) 
2775

>  <Name>  (4) 
N-OMEGA-NITRO-L-ARGININE

>  <SystematicName>  (4) 
(2S)-2-amino-5-[(N-nitrocarbamimidoyl)amino]pentanoic acid

>  <Synonyms>  (4) 
NNA

>  <Type>  (4) 
L-PEPTIDE LINKING

>  <Formula>  (4) 
C6 H13 N5 O4

>  <ObservedFormula>  (4) 
C6 N5 O4

>  <MolecularWeight>  (4) 
219.199

>  <ModifiedDate>  (4) 
2011-06-04

>  <Parent>  (4) 


>  <OneLetterCode>  (4) 


>  <SubcomponentList>  (4) 


>  <AmbiguousFlag>  (4) 
N

>  <InsertionCode>  (4) 


>  <InstanceId>  (4) 
1K2R_NRG_B_2775

>  <ChemCompId>  (4) 
NRG

>  <PdbId>  (4) 
1K2R

>  <ResidueNumber>  (4) 
2775

>  <InChI>  (4) 
InChI=1S/C6H13N5O4/c7-4(5(12)13)2-1-3-9-6(8)10-11(14)15/h4H,1-3,7H2,(H,12,13)(H3,8,9,10)/t4-/m0/s1

>  <InChIKey>  (4) 
MRAUNPAHJZDYCK-BYPYZUCNSA-N

>  <SMILES>  (4) 
[H]/N=C(\NCCC[C@@H](C(=O)O)N)/N[N+](=O)[O-]

>  <MissingHeavyAtoms>  (4) 
0

>  <Model>  (4) 
1

>  <AltIds>  (4) 


>  <pKI>  (4) 
5.34

>  <ChemblID>  (4) 
CHEMBL227744

>  <standardized_canonical_smiles>  (4) 
N=C(NCCC[C@H](N)C(=O)O)N[N+](=O)[O-]

$$$$
1P6K_DP1_B_791
     RDKit          3D

 22 21  0  0  0  0  0  0  0  0999 V2000
   11.4080   -1.3260   58.6320 N   0  0  0  0  0  0  0  0  0  0  0  0
   11.9980   -0.2360   59.0230 C   0  0  0  0  0  0  0  0  0  0  0  0
   11.5220    0.5140   59.9540 N   0  0  0  0  0  0  0  0  0  0  0  0
   10.6040    0.1570   60.9300 N   0  0  0  0  0  0  0  0  0  0  0  0
   10.2690    0.9720   61.7560 O   0  0  0  0  0  0  0  0  0  0  0  0
   10.1240   -0.9570   60.9630 O   0  0  0  0  0  0  0  0  0  0  0  0
   13.1330    0.0870   58.4160 N   0  0  0  0  0  0  0  0  0  0  0  0
   13.9550    1.2830   58.7160 C   0  0  0  0  0  0  0  0  0  0  0  0
   15.4070    0.9500   58.3780 C   0  0  0  0  0  0  0  0  0  0  0  0
   16.3400    2.1820   58.5120 C   0  0  0  0  0  0  0  0  0  0  0  0
   17.3970    2.2570   57.3890 C   0  0  0  0  0  0  0  0  0  0  0  0
   18.1120    0.9810   57.3900 N   0  0  0  0  0  0  0  0  0  0  0  0
   18.3930    3.4280   57.5470 C   0  0  0  0  0  0  0  0  0  0  0  0
   19.5910    3.2140   57.6580 O   0  0  0  0  0  0  0  0  0  0  0  0
   17.9060    4.6720   57.5370 N   0  0  0  0  0  0  0  0  0  0  0  0
   18.7850    5.8560   57.6570 C   0  0  0  0  0  0  0  0  0  0  0  0
   19.0300    6.3000   59.1150 C   0  0  0  0  0  0  0  0  0  0  0  0
   20.0100    7.0080   59.4120 O   0  0  0  0  0  0  0  0  0  0  0  0
   18.1440    5.8810   60.0340 N   0  0  0  0  0  0  0  0  0  0  0  0
   18.1810    6.9820   56.7940 C   0  0  0  0  0  0  0  0  0  0  0  0
   18.6170    6.8680   55.3230 C   0  0  0  0  0  0  0  0  0  0  0  0
   17.7990    7.7700   54.5080 N   0  0  0  0  0  0  0  0  0  0  0  0
  2  1  2  0
  3  2  1  0
  7  2  1  0
  4  3  1  0
  5  4  1  0
  6  4  2  0
  8  7  1  0
  9  8  1  0
 10  9  1  0
 11 10  1  0
 12 11  1  0
 13 11  1  0
 14 13  2  0
 15 13  1  0
 16 15  1  0
 17 16  1  0
 20 16  1  0
 18 17  2  0
 19 17  1  0
 21 20  1  0
 22 21  1  0
M  CHG  2   4   1   5  -1
A    1
NH2
A    2
CZ
A    3
NH1
A    4
NO
A    5
O2
A    6
O3
A    7
NE
A    8
CD
A    9
CG
A   10
CB
A   11
CA
A   12
N
A   13
C
A   14
O
A   15
N'
A   16
CA'
A   17
C'
A   18
O'
A   19
N1'
A   20
CB'
A   21
C1
A   22
N1
M  END
>  <Id>  (5) 
1P6K_DP1_B_791

>  <ChainId>  (5) 
B

>  <AsymId>  (5) 
M

>  <SeqNum>  (5) 
791

>  <Name>  (5) 
L-N(OMEGA)-NITROARGININE-2,4-L-DIAMINOBUTYRIC AMIDE

>  <SystematicName>  (5) 
(2S)-2-amino-N-[(2S)-1,4-diamino-1-oxo-butan-2-yl]-5-[(N-nitrocarbamimidoyl)amino]pentanamide

>  <Synonyms>  (5) 


>  <Type>  (5) 
NON-POLYMER

>  <Formula>  (5) 
C10 H22 N8 O4

>  <ObservedFormula>  (5) 
C10 N8 O4

>  <MolecularWeight>  (5) 
318.333

>  <ModifiedDate>  (5) 
2011-06-04

>  <Parent>  (5) 
ARG

>  <OneLetterCode>  (5) 


>  <SubcomponentList>  (5) 


>  <AmbiguousFlag>  (5) 
N

>  <InsertionCode>  (5) 


>  <InstanceId>  (5) 
1P6K_DP1_B_791

>  <ChemCompId>  (5) 
DP1

>  <PdbId>  (5) 
1P6K

>  <ResidueNumber>  (5) 
791

>  <InChI>  (5) 
InChI=1S/C10H22N8O4/c11-4-3-7(8(13)19)16-9(20)6(12)2-1-5-15-10(14)17-18(21)22/h6-7H,1-5,11-12H2,(H2,13,19)(H,16,20)(H3,14,15,17)/t6-,7-/m0/s1

>  <InChIKey>  (5) 
KUZKVXUOMSVPOA-BQBZGAKWSA-N

>  <SMILES>  (5) 
C(C[C@@H](C(=O)N[C@@H](CCN)C(=O)N)N)CNC(=N)N[N+](=O)[O-]

>  <MissingHeavyAtoms>  (5) 
0

>  <Model>  (5) 
1

>  <AltIds>  (5) 


>  <pKI>  (5) 
6.89

>  <ChemblID>  (5) 
CHEMBL44833

>  <standardized_canonical_smiles>  (5) 
N=C(NCCC[C@H](N)C(=O)N[C@@H](CCN)C(N)=O)N[N+](=O)[O-]

$$$$
1ZZU_DP1_B_791
     RDKit          3D

 22 21  0  0  0  0  0  0  0  0999 V2000
   11.5000   -1.2620   58.9380 N   0  0  0  0  0  0  0  0  0  0  0  0
   12.1290   -0.2050   59.3630 C   0  0  0  0  0  0  0  0  0  0  0  0
   11.6690    0.5300   60.3030 N   0  0  0  0  0  0  0  0  0  0  0  0
   10.7300    0.1770   61.2540 N   0  0  0  0  0  0  0  0  0  0  0  0
   10.4350    0.9680   62.1140 O   0  0  0  0  0  0  0  0  0  0  0  0
   10.1940   -0.9100   61.2350 O   0  0  0  0  0  0  0  0  0  0  0  0
   13.2880    0.0970   58.7850 N   0  0  0  0  0  0  0  0  0  0  0  0
   14.1340    1.2670   59.1420 C   0  0  0  0  0  0  0  0  0  0  0  0
   15.2710    1.3690   58.1270 C   0  0  0  0  0  0  0  0  0  0  0  0
   16.3930    2.3120   58.5980 C   0  0  0  0  0  0  0  0  0  0  0  0
   17.6110    2.2780   57.6560 C   0  0  0  0  0  0  0  0  0  0  0  0
   18.3050    1.0110   57.8940 N   0  0  0  0  0  0  0  0  0  0  0  0
   18.5650    3.4790   57.8470 C   0  0  0  0  0  0  0  0  0  0  0  0
   19.7550    3.3040   58.0820 O   0  0  0  0  0  0  0  0  0  0  0  0
   18.0370    4.7070   57.7280 N   0  0  0  0  0  0  0  0  0  0  0  0
   18.8370    5.9440   57.8640 C   0  0  0  0  0  0  0  0  0  0  0  0
   19.0190    6.4030   59.3340 C   0  0  0  0  0  0  0  0  0  0  0  0
   19.9260    7.1740   59.6610 O   0  0  0  0  0  0  0  0  0  0  0  0
   18.1560    5.9190   60.2250 N   0  0  0  0  0  0  0  0  0  0  0  0
   18.1750    7.0310   56.9770 C   0  0  0  0  0  0  0  0  0  0  0  0
   18.6800    6.9800   55.5140 C   0  0  0  0  0  0  0  0  0  0  0  0
   17.9340    7.9480   54.6910 N   0  0  0  0  0  0  0  0  0  0  0  0
  2  1  2  0
  3  2  1  0
  7  2  1  0
  4  3  1  0
  5  4  1  0
  6  4  2  0
  8  7  1  0
  9  8  1  0
 10  9  1  0
 11 10  1  0
 12 11  1  0
 13 11  1  0
 14 13  2  0
 15 13  1  0
 16 15  1  0
 17 16  1  0
 20 16  1  0
 18 17  2  0
 19 17  1  0
 21 20  1  0
 22 21  1  0
M  CHG  2   4   1   5  -1
A    1
NH2
A    2
CZ
A    3
NH1
A    4
NO
A    5
O2
A    6
O3
A    7
NE
A    8
CD
A    9
CG
A   10
CB
A   11
CA
A   12
N
A   13
C
A   14
O
A   15
N'
A   16
CA'
A   17
C'
A   18
O'
A   19
N1'
A   20
CB'
A   21
C1
A   22
N1
M  END
>  <Id>  (6) 
1ZZU_DP1_B_791

>  <ChainId>  (6) 
B

>  <AsymId>  (6) 
N

>  <SeqNum>  (6) 
791

>  <Name>  (6) 
L-N(OMEGA)-NITROARGININE-2,4-L-DIAMINOBUTYRIC AMIDE

>  <SystematicName>  (6) 
(2S)-2-amino-N-[(2S)-1,4-diamino-1-oxo-butan-2-yl]-5-[(N-nitrocarbamimidoyl)amino]pentanamide

>  <Synonyms>  (6) 


>  <Type>  (6) 
NON-POLYMER

>  <Formula>  (6) 
C10 H22 N8 O4

>  <ObservedFormula>  (6) 
C10 N8 O4

>  <MolecularWeight>  (6) 
318.333

>  <ModifiedDate>  (6) 
2011-06-04

>  <Parent>  (6) 
ARG

>  <OneLetterCode>  (6) 


>  <SubcomponentList>  (6) 


>  <AmbiguousFlag>  (6) 
N

>  <InsertionCode>  (6) 


>  <InstanceId>  (6) 
1ZZU_DP1_B_791

>  <ChemCompId>  (6) 
DP1

>  <PdbId>  (6) 
1ZZU

>  <ResidueNumber>  (6) 
791

>  <InChI>  (6) 
InChI=1S/C10H22N8O4/c11-4-3-7(8(13)19)16-9(20)6(12)2-1-5-15-10(14)17-18(21)22/h6-7H,1-5,11-12H2,(H2,13,19)(H,16,20)(H3,14,15,17)/t6-,7-/m0/s1

>  <InChIKey>  (6) 
KUZKVXUOMSVPOA-BQBZGAKWSA-N

>  <SMILES>  (6) 
C(C[C@@H](C(=O)N[C@@H](CCN)C(=O)N)N)CNC(=N)N[N+](=O)[O-]

>  <MissingHeavyAtoms>  (6) 
0

>  <Model>  (6) 
1

>  <AltIds>  (6) 


>  <pKI>  (6) 
6.89

>  <ChemblID>  (6) 
CHEMBL44833

>  <standardized_canonical_smiles>  (6) 
N=C(NCCC[C@H](N)C(=O)N[C@@H](CCN)C(N)=O)N[N+](=O)[O-]

$$$$
1P6H_DP1_B_791
     RDKit          3D

 22 21  0  0  0  0  0  0  0  0999 V2000
   11.2930   -1.3930   58.8800 N   0  0  0  0  0  0  0  0  0  0  0  0
   11.8550   -0.2760   59.2110 C   0  0  0  0  0  0  0  0  0  0  0  0
   11.3940    0.4650   60.1440 N   0  0  0  0  0  0  0  0  0  0  0  0
   10.5300    0.1010   61.1570 N   0  0  0  0  0  0  0  0  0  0  0  0
   10.2440    0.9100   62.0180 O   0  0  0  0  0  0  0  0  0  0  0  0
   10.0390   -1.0010   61.1880 O   0  0  0  0  0  0  0  0  0  0  0  0
   12.9370    0.0800   58.5410 N   0  0  0  0  0  0  0  0  0  0  0  0
   13.7310    1.3170   58.7440 C   0  0  0  0  0  0  0  0  0  0  0  0
   15.0070    0.9940   59.5300 C   0  0  0  0  0  0  0  0  0  0  0  0
   15.9510    0.0430   58.7840 C   0  0  0  0  0  0  0  0  0  0  0  0
   16.5130    0.6220   57.4710 C   0  0  0  0  0  0  0  0  0  0  0  0
   16.6680   -0.5010   56.5290 N   0  0  0  0  0  0  0  0  0  0  0  0
   17.8570    1.3720   57.6870 C   0  0  0  0  0  0  0  0  0  0  0  0
   18.9160    0.7680   57.6450 O   0  0  0  0  0  0  0  0  0  0  0  0
   17.7980    2.6980   57.9120 N   0  0  0  0  0  0  0  0  0  0  0  0
   18.9850    3.5370   58.1160 C   0  0  0  0  0  0  0  0  0  0  0  0
   19.1750    4.0040   59.5880 C   0  0  0  0  0  0  0  0  0  0  0  0
   19.9560    3.4200   60.3430 O   0  0  0  0  0  0  0  0  0  0  0  0
   18.4740    5.0940   59.9970 N   0  0  0  0  0  0  0  0  0  0  0  0
   18.8820    4.7210   57.1310 C   0  0  0  0  0  0  0  0  0  0  0  0
   19.2330    4.2990   55.6800 C   0  0  0  0  0  0  0  0  0  0  0  0
   19.6440    5.4780   54.9060 N   0  0  0  0  0  0  0  0  0  0  0  0
  2  1  2  0
  3  2  1  0
  7  2  1  0
  4  3  1  0
  5  4  1  0
  6  4  2  0
  8  7  1  0
  9  8  1  0
 10  9  1  0
 11 10  1  0
 12 11  1  0
 13 11  1  0
 14 13  2  0
 15 13  1  0
 16 15  1  0
 17 16  1  0
 20 16  1  0
 18 17  2  0
 19 17  1  0
 21 20  1  0
 22 21  1  0
M  CHG  2   4   1   5  -1
A    1
NH2
A    2
CZ
A    3
NH1
A    4
NO
A    5
O2
A    6
O3
A    7
NE
A    8
CD
A    9
CG
A   10
CB
A   11
CA
A   12
N
A   13
C
A   14
O
A   15
N'
A   16
CA'
A   17
C'
A   18
O'
A   19
N1'
A   20
CB'
A   21
C1
A   22
N1
M  END
>  <Id>  (7) 
1P6H_DP1_B_791

>  <ChainId>  (7) 
B

>  <AsymId>  (7) 
K

>  <SeqNum>  (7) 
791

>  <Name>  (7) 
L-N(OMEGA)-NITROARGININE-2,4-L-DIAMINOBUTYRIC AMIDE

>  <SystematicName>  (7) 
(2S)-2-amino-N-[(2S)-1,4-diamino-1-oxo-butan-2-yl]-5-[(N-nitrocarbamimidoyl)amino]pentanamide

>  <Synonyms>  (7) 


>  <Type>  (7) 
NON-POLYMER

>  <Formula>  (7) 
C10 H22 N8 O4

>  <ObservedFormula>  (7) 
C10 N8 O4

>  <MolecularWeight>  (7) 
318.333

>  <ModifiedDate>  (7) 
2011-06-04

>  <Parent>  (7) 
ARG

>  <OneLetterCode>  (7) 


>  <SubcomponentList>  (7) 


>  <AmbiguousFlag>  (7) 
N

>  <InsertionCode>  (7) 


>  <InstanceId>  (7) 
1P6H_DP1_B_791

>  <ChemCompId>  (7) 
DP1

>  <PdbId>  (7) 
1P6H

>  <ResidueNumber>  (7) 
791

>  <InChI>  (7) 
InChI=1S/C10H22N8O4/c11-4-3-7(8(13)19)16-9(20)6(12)2-1-5-15-10(14)17-18(21)22/h6-7H,1-5,11-12H2,(H2,13,19)(H,16,20)(H3,14,15,17)/t6-,7-/m0/s1

>  <InChIKey>  (7) 
KUZKVXUOMSVPOA-BQBZGAKWSA-N

>  <SMILES>  (7) 
C(C[C@@H](C(=O)N[C@@H](CCN)C(=O)N)N)CNC(=N)N[N+](=O)[O-]

>  <MissingHeavyAtoms>  (7) 
0

>  <Model>  (7) 
1

>  <AltIds>  (7) 


>  <pKI>  (7) 
6.89

>  <ChemblID>  (7) 
CHEMBL44833

>  <standardized_canonical_smiles>  (7) 
N=C(NCCC[C@H](N)C(=O)N[C@@H](CCN)C(N)=O)N[N+](=O)[O-]

$$$$
1P6I_DP3_B_794
     RDKit          3D

 17 16  0  0  0  0  0  0  0  0999 V2000
   19.5970    4.5510   54.7760 N   0  0  0  0  0  0  0  0  0  0  0  0
   19.2610    4.4770   56.2420 C   0  0  0  0  0  0  0  0  0  0  0  0
   19.1460    3.0210   56.7780 C   0  0  0  0  0  0  0  0  0  0  0  0
   17.8050    2.3940   56.5800 N   0  0  0  0  0  0  0  0  0  0  0  0
   17.5670    1.1530   57.3630 C   0  0  0  0  0  0  0  0  0  0  0  0
   16.1570    0.5110   57.1680 C   0  0  0  0  0  0  0  0  0  0  0  0
   16.3130   -0.7470   56.3890 N   0  0  0  0  0  0  0  0  0  0  0  0
   15.4530    0.0930   58.5020 C   0  0  0  0  0  0  0  0  0  0  0  0
   14.5910    1.2030   59.1270 C   0  0  0  0  0  0  0  0  0  0  0  0
   13.3100    1.4870   58.3370 C   0  0  0  0  0  0  0  0  0  0  0  0
   12.4830    0.2450   58.1810 N   0  0  0  0  0  0  0  0  0  0  0  0
   11.5170   -0.1720   58.9650 C   0  0  0  0  0  0  0  0  0  0  0  0
   10.9100   -1.3320   58.6070 N   0  0  0  0  0  0  0  0  0  0  0  0
   11.1890    0.5640   60.0580 N   0  0  0  0  0  0  0  0  0  0  0  0
   10.3200    0.0910   61.0210 N   0  0  0  0  0  0  0  0  0  0  0  0
   10.0580    0.8350   62.0120 O   0  0  0  0  0  0  0  0  0  0  0  0
    9.7740   -1.0510   60.9530 O   0  0  0  0  0  0  0  0  0  0  0  0
  2  1  1  0
  3  2  1  0
  4  3  1  0
  5  4  1  0
  6  5  1  0
  7  6  1  0
  8  6  1  0
  9  8  1  0
 10  9  1  0
 11 10  1  0
 12 11  1  0
 13 12  2  0
 14 12  1  0
 15 14  1  0
 16 15  2  0
 17 15  1  0
M  CHG  2  15   1  17  -1
A    1
N2'
A    2
C2'
A    3
C1'
A    4
N1'
A    5
C
A    6
CA
A    7
N
A    8
CB
A    9
CG
A   10
CD
A   11
NE
A   12
CZ
A   13
NH2
A   14
NH1
A   15
NO
A   16
O2
A   17
O3
M  END
>  <Id>  (8) 
1P6I_DP3_B_794

>  <ChainId>  (8) 
B

>  <AsymId>  (8) 
K

>  <SeqNum>  (8) 
794

>  <Name>  (8) 
N-{(4S)-4-AMINO-5-[(2-AMINOETHYL)AMINO]PENTYL}-N'-NITROGUANIDINE

>  <SystematicName>  (8) 
1-[(4S)-4-amino-5-(2-aminoethylamino)pentyl]-3-nitro-guanidine

>  <Synonyms>  (8) 


>  <Type>  (8) 
NON-POLYMER

>  <Formula>  (8) 
C8 H21 N7 O2

>  <ObservedFormula>  (8) 
C8 N7 O2

>  <MolecularWeight>  (8) 
247.298

>  <ModifiedDate>  (8) 
2011-06-04

>  <Parent>  (8) 


>  <OneLetterCode>  (8) 


>  <SubcomponentList>  (8) 


>  <AmbiguousFlag>  (8) 
N

>  <InsertionCode>  (8) 


>  <InstanceId>  (8) 
1P6I_DP3_B_794

>  <ChemCompId>  (8) 
DP3

>  <PdbId>  (8) 
1P6I

>  <ResidueNumber>  (8) 
794

>  <InChI>  (8) 
InChI=1S/C8H21N7O2/c9-3-5-12-6-7(10)2-1-4-13-8(11)14-15(16)17/h7,12H,1-6,9-10H2,(H3,11,13,14)/t7-/m0/s1

>  <InChIKey>  (8) 
RMSWBHUVFNFNIZ-ZETCQYMHSA-N

>  <SMILES>  (8) 
C(C[C@@H](CNCCN)N)CNC(=N)N[N+](=O)[O-]

>  <MissingHeavyAtoms>  (8) 
0

>  <Model>  (8) 
1

>  <AltIds>  (8) 


>  <pKI>  (8) 
6.94

>  <ChemblID>  (8) 
CHEMBL227937

>  <standardized_canonical_smiles>  (8) 
N=C(NCCC[C@H](N)CNCCN)N[N+](=O)[O-]

$$$$
3NLN_JRS_B_800
     RDKit          3D

 27 29  0  0  0  0  0  0  0  0999 V2000
   16.8490    4.6090   57.9230 C   0  0  0  0  0  0  0  0  0  0  0  0
   17.1860    3.2340   57.6330 O   0  0  0  0  0  0  0  0  0  0  0  0
   17.0010    5.4480   56.6480 C   0  0  0  0  0  0  0  0  0  0  0  0
   18.3560    5.8330   56.3000 N   0  0  0  0  0  0  0  0  0  0  0  0
   18.6360    7.2450   56.0750 C   0  0  0  0  0  0  0  0  0  0  0  0
   18.0560    7.7600   54.7610 C   0  0  0  0  0  0  0  0  0  0  0  0
   16.3500    0.0500   57.0410 N   0  0  0  0  0  0  0  0  0  0  0  0
   18.8940    8.8880   54.2290 C   0  0  0  0  0  0  0  0  0  0  0  0
   20.2500    8.6660   54.0310 C   0  0  0  0  0  0  0  0  0  0  0  0
   21.0190    9.7130   53.5510 C   0  0  0  0  0  0  0  0  0  0  0  0
   22.3320    9.4950   53.3510 F   0  0  0  0  0  0  0  0  0  0  0  0
   20.4540   10.9570   53.2640 C   0  0  0  0  0  0  0  0  0  0  0  0
   19.0920   11.1740   53.4600 C   0  0  0  0  0  0  0  0  0  0  0  0
   18.3160   10.1260   53.9430 C   0  0  0  0  0  0  0  0  0  0  0  0
   12.3770    0.0510   58.2790 N   0  0  0  0  0  0  0  0  0  0  0  0
   16.6880    1.2710   56.3050 C   0  0  0  0  0  0  0  0  0  0  0  0
   12.7120    1.3200   58.6430 C   0  0  0  0  0  0  0  0  0  0  0  0
   16.1000    2.4900   57.0590 C   0  0  0  0  0  0  0  0  0  0  0  0
   12.1450    1.8700   59.8090 C   0  0  0  0  0  0  0  0  0  0  0  0
   15.1590    1.9200   58.1340 C   0  0  0  0  0  0  0  0  0  0  0  0
   11.2690    1.1250   60.5990 C   0  0  0  0  0  0  0  0  0  0  0  0
   15.5560    0.4490   58.2340 C   0  0  0  0  0  0  0  0  0  0  0  0
   10.9390   -0.1800   60.2140 C   0  0  0  0  0  0  0  0  0  0  0  0
   11.5170   -0.6890   59.0300 C   0  0  0  0  0  0  0  0  0  0  0  0
   11.2220   -1.9440   58.6330 N   0  0  0  0  0  0  0  0  0  0  0  0
   13.6810    2.1400   57.7860 C   0  0  0  0  0  0  0  0  0  0  0  0
   10.6790    1.7360   61.8480 C   0  0  0  0  0  0  0  0  0  0  0  0
  2  1  1  0
  3  1  1  0
 18  2  1  0
  4  3  1  0
  5  4  1  0
  6  5  1  0
  8  6  1  0
 16  7  1  0
 22  7  1  0
  9  8  2  0
 14  8  1  0
 10  9  1  0
 11 10  1  0
 12 10  2  0
 13 12  1  0
 14 13  2  0
 17 15  2  0
 24 15  1  0
 18 16  1  0
 19 17  1  0
 26 17  1  0
 20 18  1  0
 21 19  2  0
 22 20  1  0
 26 20  1  0
 23 21  1  0
 27 21  1  0
 24 23  2  0
 25 24  1  0
A    1
C1
A    2
O1
A    3
C2
A    4
N2
A    5
C3
A    6
C4
A    7
N1'
A    8
C11
A    9
C12
A   10
C13
A   11
F13
A   12
C14
A   13
C15
A   14
C16
A   15
N1A
A   16
C2'
A   17
C2A
A   18
C3'
A   19
C3A
A   20
C4'
A   21
C4A
A   22
C5'
A   23
C5A
A   24
C6A
A   25
N6A
A   26
C7A
A   27
C8A
M  END
>  <Id>  (9) 
3NLN_JRS_B_800

>  <ChainId>  (9) 
B

>  <AsymId>  (9) 
J

>  <SeqNum>  (9) 
800

>  <Name>  (9) 
6-{[(3S,4R)-4-(2-{[2-(3-fluorophenyl)ethyl]amino}ethoxy)pyrrolidin-3-yl]methyl}-4-methylpyridin-2-amine

>  <SystematicName>  (9) 
6-[[(3S,4R)-4-[2-[2-(3-fluorophenyl)ethylamino]ethoxy]pyrrolidin-3-yl]methyl]-4-methyl-pyridin-2-amine

>  <Synonyms>  (9) 


>  <Type>  (9) 
NON-POLYMER

>  <Formula>  (9) 
C21 H29 F N4 O

>  <ObservedFormula>  (9) 
C21 F N4 O

>  <MolecularWeight>  (9) 
372.48

>  <ModifiedDate>  (9) 
2011-06-04

>  <Parent>  (9) 


>  <OneLetterCode>  (9) 


>  <SubcomponentList>  (9) 


>  <AmbiguousFlag>  (9) 
N

>  <InsertionCode>  (9) 


>  <InstanceId>  (9) 
3NLN_JRS_B_800

>  <ChemCompId>  (9) 
JRS

>  <PdbId>  (9) 
3NLN

>  <ResidueNumber>  (9) 
800

>  <InChI>  (9) 
InChI=1S/C21H29FN4O/c1-15-9-19(26-21(23)10-15)12-17-13-25-14-20(17)27-8-7-24-6-5-16-3-2-4-18(22)11-16/h2-4,9-11,17,20,24-25H,5-8,12-14H2,1H3,(H2,23,26)/t17-,20-/m0/s1

>  <InChIKey>  (9) 
NESZTSPBRDBHCW-PXNSSMCTSA-N

>  <SMILES>  (9) 
Cc1cc(nc(c1)N)C[C@H]2CNC[C@@H]2OCCNCCc3cccc(c3)F

>  <MissingHeavyAtoms>  (9) 
0

>  <Model>  (9) 
1

>  <AltIds>  (9) 


>  <pKI>  (9) 
7.82

>  <ChemblID>  (9) 
CHEMBL446971

>  <standardized_canonical_smiles>  (9) 
Cc1cc(N)nc(CC2CNCC2OCCNCCc2cccc(F)c2)c1

$$$$
3NLR_JRS_B_800
     RDKit          3D

 27 29  0  0  0  0  0  0  0  0999 V2000
   16.7260    4.6640   57.4470 C   0  0  0  0  0  0  0  0  0  0  0  0
   16.7050    3.2640   57.6490 O   0  0  0  0  0  0  0  0  0  0  0  0
   17.9150    4.8230   56.4860 C   0  0  0  0  0  0  0  0  0  0  0  0
   18.4190    6.1780   56.4100 N   0  0  0  0  0  0  0  0  0  0  0  0
   17.5430    7.2520   56.0040 C   0  0  0  0  0  0  0  0  0  0  0  0
   17.6540    7.4800   54.5060 C   0  0  0  0  0  0  0  0  0  0  0  0
   16.1270    0.1160   56.9450 N   0  0  0  0  0  0  0  0  0  0  0  0
   18.7190    8.5120   54.2290 C   0  0  0  0  0  0  0  0  0  0  0  0
   19.9790    8.0350   53.9430 C   0  0  0  0  0  0  0  0  0  0  0  0
   20.9960    8.9440   53.6870 C   0  0  0  0  0  0  0  0  0  0  0  0
   22.2100    8.4310   53.4130 F   0  0  0  0  0  0  0  0  0  0  0  0
   20.7730   10.3300   53.7080 C   0  0  0  0  0  0  0  0  0  0  0  0
   19.5000   10.8090   53.9940 C   0  0  0  0  0  0  0  0  0  0  0  0
   18.4730    9.8940   54.2500 C   0  0  0  0  0  0  0  0  0  0  0  0
   12.0340    0.1410   58.1380 N   0  0  0  0  0  0  0  0  0  0  0  0
   16.4620    1.3820   56.2760 C   0  0  0  0  0  0  0  0  0  0  0  0
   12.3690    1.4140   58.4560 C   0  0  0  0  0  0  0  0  0  0  0  0
   15.7230    2.5570   56.9200 C   0  0  0  0  0  0  0  0  0  0  0  0
   11.8860    1.9790   59.6430 C   0  0  0  0  0  0  0  0  0  0  0  0
   14.7760    1.9300   57.9320 C   0  0  0  0  0  0  0  0  0  0  0  0
   11.0600    1.2440   60.4930 C   0  0  0  0  0  0  0  0  0  0  0  0
   15.2790    0.4790   58.0990 C   0  0  0  0  0  0  0  0  0  0  0  0
   10.6970   -0.0540   60.1030 C   0  0  0  0  0  0  0  0  0  0  0  0
   11.1960   -0.5980   58.8990 C   0  0  0  0  0  0  0  0  0  0  0  0
   10.8920   -1.8540   58.4640 N   0  0  0  0  0  0  0  0  0  0  0  0
   13.3030    2.1600   57.5210 C   0  0  0  0  0  0  0  0  0  0  0  0
   10.5600    1.8480   61.7690 C   0  0  0  0  0  0  0  0  0  0  0  0
  2  1  1  0
  3  1  1  0
 18  2  1  0
  4  3  1  0
  5  4  1  0
  6  5  1  0
  8  6  1  0
 16  7  1  0
 22  7  1  0
  9  8  2  0
 14  8  1  0
 10  9  1  0
 11 10  1  0
 12 10  2  0
 13 12  1  0
 14 13  2  0
 17 15  2  0
 24 15  1  0
 18 16  1  0
 19 17  1  0
 26 17  1  0
 20 18  1  0
 21 19  2  0
 22 20  1  0
 26 20  1  0
 23 21  1  0
 27 21  1  0
 24 23  2  0
 25 24  1  0
A    1
C1
A    2
O1
A    3
C2
A    4
N2
A    5
C3
A    6
C4
A    7
N1'
A    8
C11
A    9
C12
A   10
C13
A   11
F13
A   12
C14
A   13
C15
A   14
C16
A   15
N1A
A   16
C2'
A   17
C2A
A   18
C3'
A   19
C3A
A   20
C4'
A   21
C4A
A   22
C5'
A   23
C5A
A   24
C6A
A   25
N6A
A   26
C7A
A   27
C8A
M  END
>  <Id>  (10) 
3NLR_JRS_B_800

>  <ChainId>  (10) 
B

>  <AsymId>  (10) 
J

>  <SeqNum>  (10) 
800

>  <Name>  (10) 
6-{[(3S,4R)-4-(2-{[2-(3-fluorophenyl)ethyl]amino}ethoxy)pyrrolidin-3-yl]methyl}-4-methylpyridin-2-amine

>  <SystematicName>  (10) 
6-[[(3S,4R)-4-[2-[2-(3-fluorophenyl)ethylamino]ethoxy]pyrrolidin-3-yl]methyl]-4-methyl-pyridin-2-amine

>  <Synonyms>  (10) 


>  <Type>  (10) 
NON-POLYMER

>  <Formula>  (10) 
C21 H29 F N4 O

>  <ObservedFormula>  (10) 
C21 F N4 O

>  <MolecularWeight>  (10) 
372.48

>  <ModifiedDate>  (10) 
2011-06-04

>  <Parent>  (10) 


>  <OneLetterCode>  (10) 


>  <SubcomponentList>  (10) 


>  <AmbiguousFlag>  (10) 
N

>  <InsertionCode>  (10) 


>  <InstanceId>  (10) 
3NLR_JRS_B_800

>  <ChemCompId>  (10) 
JRS

>  <PdbId>  (10) 
3NLR

>  <ResidueNumber>  (10) 
800

>  <InChI>  (10) 
InChI=1S/C21H29FN4O/c1-15-9-19(26-21(23)10-15)12-17-13-25-14-20(17)27-8-7-24-6-5-16-3-2-4-18(22)11-16/h2-4,9-11,17,20,24-25H,5-8,12-14H2,1H3,(H2,23,26)/t17-,20-/m0/s1

>  <InChIKey>  (10) 
NESZTSPBRDBHCW-PXNSSMCTSA-N

>  <SMILES>  (10) 
Cc1cc(nc(c1)N)C[C@H]2CNC[C@@H]2OCCNCCc3cccc(c3)F

>  <MissingHeavyAtoms>  (10) 
0

>  <Model>  (10) 
1

>  <AltIds>  (10) 


>  <pKI>  (10) 
7.82

>  <ChemblID>  (10) 
CHEMBL446971

>  <standardized_canonical_smiles>  (10) 
Cc1cc(N)nc(CC2CNCC2OCCNCCc2cccc(F)c2)c1

$$$$
3NLO_JSR_B_800
     RDKit          3D

 27 29  0  0  0  0  0  0  0  0999 V2000
   18.5950    1.7240   56.5320 C   0  0  0  0  0  0  0  0  0  0  0  0
   17.5100    1.7480   57.5040 O   0  0  0  0  0  0  0  0  0  0  0  0
   19.6690    2.8120   56.7560 C   0  0  0  0  0  0  0  0  0  0  0  0
   19.8510    3.7160   55.6220 N   0  0  0  0  0  0  0  0  0  0  0  0
   19.7370    5.1720   55.7460 C   0  0  0  0  0  0  0  0  0  0  0  0
   19.0360    5.8400   54.5400 C   0  0  0  0  0  0  0  0  0  0  0  0
   16.3050    4.5330   57.7930 N   0  0  0  0  0  0  0  0  0  0  0  0
   19.6350    7.1870   54.1140 C   0  0  0  0  0  0  0  0  0  0  0  0
   18.8250    8.3370   54.0100 C   0  0  0  0  0  0  0  0  0  0  0  0
   19.3820    9.5740   53.6050 C   0  0  0  0  0  0  0  0  0  0  0  0
   18.6060   10.6780   53.4940 F   0  0  0  0  0  0  0  0  0  0  0  0
   20.7620    9.6630   53.3330 C   0  0  0  0  0  0  0  0  0  0  0  0
   21.5800    8.5270   53.4500 C   0  0  0  0  0  0  0  0  0  0  0  0
   21.0180    7.3010   53.8220 C   0  0  0  0  0  0  0  0  0  0  0  0
   12.3380    0.0510   58.2500 N   0  0  0  0  0  0  0  0  0  0  0  0
   16.6820    3.7770   56.6450 C   0  0  0  0  0  0  0  0  0  0  0  0
   12.7630    1.2920   58.6080 C   0  0  0  0  0  0  0  0  0  0  0  0
   16.2910    2.3560   57.0450 C   0  0  0  0  0  0  0  0  0  0  0  0
   12.1650    1.8230   59.7720 C   0  0  0  0  0  0  0  0  0  0  0  0
   15.2030    2.4380   58.1220 C   0  0  0  0  0  0  0  0  0  0  0  0
   11.2250    1.1030   60.5280 C   0  0  0  0  0  0  0  0  0  0  0  0
   15.1240    3.9340   58.3530 C   0  0  0  0  0  0  0  0  0  0  0  0
   10.8490   -0.1510   60.1120 C   0  0  0  0  0  0  0  0  0  0  0  0
   11.4220   -0.6530   58.9510 C   0  0  0  0  0  0  0  0  0  0  0  0
   11.0600   -1.8760   58.5090 N   0  0  0  0  0  0  0  0  0  0  0  0
   13.7860    2.0350   57.7020 C   0  0  0  0  0  0  0  0  0  0  0  0
   10.6140    1.6640   61.7740 C   0  0  0  0  0  0  0  0  0  0  0  0
  2  1  1  0
  3  1  1  0
 18  2  1  0
  4  3  1  0
  5  4  1  0
  6  5  1  0
  8  6  1  0
 16  7  1  0
 22  7  1  0
  9  8  2  0
 14  8  1  0
 10  9  1  0
 11 10  1  0
 12 10  2  0
 13 12  1  0
 14 13  2  0
 17 15  2  0
 24 15  1  0
 18 16  1  0
 19 17  1  0
 26 17  1  0
 20 18  1  0
 21 19  2  0
 22 20  1  0
 26 20  1  0
 23 21  1  0
 27 21  1  0
 24 23  2  0
 25 24  1  0
A    1
C1
A    2
O1
A    3
C2
A    4
N2
A    5
C3
A    6
C4
A    7
N1'
A    8
C11
A    9
C12
A   10
C13
A   11
F13
A   12
C14
A   13
C15
A   14
C16
A   15
N1A
A   16
C2'
A   17
C2A
A   18
C3'
A   19
C3A
A   20
C4'
A   21
C4A
A   22
C5'
A   23
C5A
A   24
C6A
A   25
N6A
A   26
C7A
A   27
C8A
M  END
>  <Id>  (11) 
3NLO_JSR_B_800

>  <ChainId>  (11) 
B

>  <AsymId>  (11) 
L

>  <SeqNum>  (11) 
800

>  <Name>  (11) 
6-{[(3R,4S)-4-(2-{[2-(3-fluorophenyl)ethyl]amino}ethoxy)pyrrolidin-3-yl]methyl}-4-methylpyridin-2-amine

>  <SystematicName>  (11) 
6-[[(3R,4S)-4-[2-[2-(3-fluorophenyl)ethylamino]ethoxy]pyrrolidin-3-yl]methyl]-4-methyl-pyridin-2-amine

>  <Synonyms>  (11) 


>  <Type>  (11) 
NON-POLYMER

>  <Formula>  (11) 
C21 H29 F N4 O

>  <ObservedFormula>  (11) 
C21 F N4 O

>  <MolecularWeight>  (11) 
372.48

>  <ModifiedDate>  (11) 
2011-06-04

>  <Parent>  (11) 


>  <OneLetterCode>  (11) 


>  <SubcomponentList>  (11) 


>  <AmbiguousFlag>  (11) 
N

>  <InsertionCode>  (11) 


>  <InstanceId>  (11) 
3NLO_JSR_B_800

>  <ChemCompId>  (11) 
JSR

>  <PdbId>  (11) 
3NLO

>  <ResidueNumber>  (11) 
800

>  <InChI>  (11) 
InChI=1S/C21H29FN4O/c1-15-9-19(26-21(23)10-15)12-17-13-25-14-20(17)27-8-7-24-6-5-16-3-2-4-18(22)11-16/h2-4,9-11,17,20,24-25H,5-8,12-14H2,1H3,(H2,23,26)/t17-,20-/m1/s1

>  <InChIKey>  (11) 
NESZTSPBRDBHCW-YLJYHZDGSA-N

>  <SMILES>  (11) 
Cc1cc(nc(c1)N)C[C@@H]2CNC[C@H]2OCCNCCc3cccc(c3)F

>  <MissingHeavyAtoms>  (11) 
0

>  <Model>  (11) 
1

>  <AltIds>  (11) 


>  <pKI>  (11) 
7.82

>  <ChemblID>  (11) 
CHEMBL446971

>  <standardized_canonical_smiles>  (11) 
Cc1cc(N)nc(CC2CNCC2OCCNCCc2cccc(F)c2)c1

$$$$
3PNG_8CX_B_800
     RDKit          3D

 28 30  0  0  0  0  0  0  0  0999 V2000
   17.8170    2.3170   56.9530 C   0  0  0  0  0  0  0  0  0  0  0  0
   17.7930    3.6050   56.3450 O   0  0  0  0  0  0  0  0  0  0  0  0
   16.7120    2.1940   57.9850 C   0  0  0  0  0  0  0  0  0  0  0  0
   15.3520    2.0490   57.4440 N   0  0  0  0  0  0  0  0  0  0  0  0
   14.4570    1.2140   58.1870 C   0  0  0  0  0  0  0  0  0  0  0  0
   13.0020    1.4630   57.7590 C   0  0  0  0  0  0  0  0  0  0  0  0
   12.6800    2.8220   57.7720 F   0  0  0  0  0  0  0  0  0  0  0  0
   17.4870    3.5840   53.4070 N   0  0  0  0  0  0  0  0  0  0  0  0
   12.0280    0.7100   58.5990 C   0  0  0  0  0  0  0  0  0  0  0  0
   11.6330    1.2970   59.7900 C   0  0  0  0  0  0  0  0  0  0  0  0
   10.7060    0.6850   60.6070 C   0  0  0  0  0  0  0  0  0  0  0  0
   10.3990    1.3230   61.7430 F   0  0  0  0  0  0  0  0  0  0  0  0
   10.1680   -0.5480   60.2580 C   0  0  0  0  0  0  0  0  0  0  0  0
   10.5500   -1.1550   59.0560 C   0  0  0  0  0  0  0  0  0  0  0  0
   11.4740   -0.5160   58.2270 C   0  0  0  0  0  0  0  0  0  0  0  0
   16.9970    8.4070   55.2060 N   0  0  0  0  0  0  0  0  0  0  0  0
   18.5510    2.9390   54.1510 C   0  0  0  0  0  0  0  0  0  0  0  0
   18.1900    7.7380   55.1720 C   0  0  0  0  0  0  0  0  0  0  0  0
   18.7860    3.8770   55.3310 C   0  0  0  0  0  0  0  0  0  0  0  0
   19.2980    8.3420   54.5830 C   0  0  0  0  0  0  0  0  0  0  0  0
   18.5100    5.2430   54.7170 C   0  0  0  0  0  0  0  0  0  0  0  0
   19.1680    9.6340   54.0440 C   0  0  0  0  0  0  0  0  0  0  0  0
   17.2610    4.9680   53.8480 C   0  0  0  0  0  0  0  0  0  0  0  0
   17.9290   10.2960   54.1010 C   0  0  0  0  0  0  0  0  0  0  0  0
   16.8360    9.6490   54.6810 C   0  0  0  0  0  0  0  0  0  0  0  0
   15.6330   10.2830   54.7540 N   0  0  0  0  0  0  0  0  0  0  0  0
   18.3030    6.3420   55.7640 C   0  0  0  0  0  0  0  0  0  0  0  0
   20.3770   10.3020   53.4170 C   0  0  0  0  0  0  0  0  0  0  0  0
  2  1  1  0
  3  1  1  0
 19  2  1  0
  4  3  1  0
  5  4  1  0
  6  5  1  0
  7  6  1  0
  9  6  1  0
 17  8  1  0
 23  8  1  0
 10  9  2  0
 15  9  1  0
 11 10  1  0
 12 11  1  0
 13 11  2  0
 14 13  1  0
 15 14  2  0
 18 16  2  0
 25 16  1  0
 19 17  1  0
 20 18  1  0
 27 18  1  0
 21 19  1  0
 22 20  2  0
 23 21  1  0
 27 21  1  0
 24 22  1  0
 28 22  1  0
 25 24  2  0
 26 25  1  0
A    1
C1
A    2
O1
A    3
C2
A    4
N2
A    5
C3
A    6
C4
A    7
F5
A    8
N1'
A    9
C11
A   10
C12
A   11
C13
A   12
F13
A   13
C14
A   14
C15
A   15
C16
A   16
N1A
A   17
C2'
A   18
C2A
A   19
C3'
A   20
C3A
A   21
C4'
A   22
C4A
A   23
C5'
A   24
C5A
A   25
C6A
A   26
N6A
A   27
C7A
A   28
C8A
M  END
>  <Id>  (12) 
3PNG_8CX_B_800

>  <ChainId>  (12) 
B

>  <AsymId>  (12) 
K

>  <SeqNum>  (12) 
800

>  <Name>  (12) 
6-{[(3R,4R)-4-(2-{[(2R)-2-fluoro-2-(3-fluorophenyl)ethyl]amino}ethoxy)pyrrolidin-3-yl]methyl}-4-methylpyridin-2-amine

>  <SystematicName>  (12) 
6-[[(3R,4R)-4-[2-[[(2R)-2-fluoro-2-(3-fluorophenyl)ethyl]amino]ethoxy]pyrrolidin-3-yl]methyl]-4-methyl-pyridin-2-amine

>  <Synonyms>  (12) 


>  <Type>  (12) 
NON-POLYMER

>  <Formula>  (12) 
C21 H28 F2 N4 O

>  <ObservedFormula>  (12) 
C21 F2 N4 O

>  <MolecularWeight>  (12) 
390.47

>  <ModifiedDate>  (12) 
2011-09-30

>  <Parent>  (12) 


>  <OneLetterCode>  (12) 


>  <SubcomponentList>  (12) 


>  <AmbiguousFlag>  (12) 
N

>  <InsertionCode>  (12) 


>  <InstanceId>  (12) 
3PNG_8CX_B_800

>  <ChemCompId>  (12) 
8CX

>  <PdbId>  (12) 
3PNG

>  <ResidueNumber>  (12) 
800

>  <InChI>  (12) 
InChI=1S/C21H28F2N4O/c1-14-7-18(27-21(24)8-14)10-16-11-26-13-20(16)28-6-5-25-12-19(23)15-3-2-4-17(22)9-15/h2-4,7-9,16,19-20,25-26H,5-6,10-13H2,1H3,(H2,24,27)/t16-,19+,20+/m1/s1

>  <InChIKey>  (12) 
NOLWAWWUERSXHH-UXPWSPDFSA-N

>  <SMILES>  (12) 
Cc1cc(nc(c1)N)C[C@@H]2CNC[C@@H]2OCCNC[C@@H](c3cccc(c3)F)F

>  <MissingHeavyAtoms>  (12) 
0

>  <Model>  (12) 
1

>  <AltIds>  (12) 


>  <pKI>  (12) 
7.44

>  <ChemblID>  (12) 
CHEMBL1086858

>  <standardized_canonical_smiles>  (12) 
Cc1cc(N)nc(CC2CNCC2OCCNCC(F)c2cccc(F)c2)c1

$$$$
3NLV_3XA_B_800
     RDKit          3D

 29 31  0  0  0  0  0  0  0  0999 V2000
   16.1690    2.9420   57.4170 O   0  0  0  0  0  0  0  0  0  0  0  0
   17.3170    3.7430   57.6600 C   0  0  0  0  0  0  0  0  0  0  0  0
   18.1040    3.8790   56.3670 C   0  0  0  0  0  0  0  0  0  0  0  0
   17.4520    4.8440   55.4880 N   0  0  0  0  0  0  0  0  0  0  0  0
   18.2290    5.7310   54.6420 C   0  0  0  0  0  0  0  0  0  0  0  0
   18.7290    6.8880   55.4910 C   0  0  0  0  0  0  0  0  0  0  0  0
   17.7100    7.4010   56.1520 F   0  0  0  0  0  0  0  0  0  0  0  0
   19.6470    6.4230   56.3240 F   0  0  0  0  0  0  0  0  0  0  0  0
   16.0880   -0.6210   57.2760 N   0  0  0  0  0  0  0  0  0  0  0  0
   19.2890    8.0020   54.6660 C   0  0  0  0  0  0  0  0  0  0  0  0
   18.4690    9.1010   54.4400 C   0  0  0  0  0  0  0  0  0  0  0  0
   18.9370   10.1700   53.6890 C   0  0  0  0  0  0  0  0  0  0  0  0
   18.1170   11.2130   53.4830 F   0  0  0  0  0  0  0  0  0  0  0  0
   20.2280   10.1520   53.1610 C   0  0  0  0  0  0  0  0  0  0  0  0
   21.0510    9.0490   53.3920 C   0  0  0  0  0  0  0  0  0  0  0  0
   20.5820    7.9680   54.1460 C   0  0  0  0  0  0  0  0  0  0  0  0
   12.1330   -0.1250   58.5250 N   0  0  0  0  0  0  0  0  0  0  0  0
   16.6890    0.5920   56.7750 C   0  0  0  0  0  0  0  0  0  0  0  0
   12.6370    1.0460   58.9550 C   0  0  0  0  0  0  0  0  0  0  0  0
   16.3890    1.6220   57.8910 C   0  0  0  0  0  0  0  0  0  0  0  0
   12.0590    1.6390   60.0790 C   0  0  0  0  0  0  0  0  0  0  0  0
   15.1860    1.0940   58.6760 C   0  0  0  0  0  0  0  0  0  0  0  0
   10.9830    1.0280   60.7270 C   0  0  0  0  0  0  0  0  0  0  0  0
   15.3660   -0.4230   58.5520 C   0  0  0  0  0  0  0  0  0  0  0  0
   10.4850   -0.1880   60.2590 C   0  0  0  0  0  0  0  0  0  0  0  0
   11.0940   -0.7370   59.1240 C   0  0  0  0  0  0  0  0  0  0  0  0
   10.6970   -1.9160   58.5800 N   0  0  0  0  0  0  0  0  0  0  0  0
   13.8260    1.6580   58.2050 C   0  0  0  0  0  0  0  0  0  0  0  0
   10.3850    1.6910   61.9310 C   0  0  0  0  0  0  0  0  0  0  0  0
  2  1  1  0
 20  1  1  0
  3  2  1  0
  4  3  1  0
  5  4  1  0
  6  5  1  0
  7  6  1  0
  8  6  1  0
 10  6  1  0
 18  9  1  0
 24  9  1  0
 11 10  2  0
 16 10  1  0
 12 11  1  0
 13 12  1  0
 14 12  2  0
 15 14  1  0
 16 15  2  0
 19 17  2  0
 26 17  1  0
 20 18  1  0
 21 19  1  0
 28 19  1  0
 22 20  1  0
 23 21  2  0
 24 22  1  0
 28 22  1  0
 25 23  1  0
 29 23  1  0
 26 25  2  0
 27 26  1  0
A    1
O1
A    2
C2
A    3
C3
A    4
N4
A    5
C5
A    6
C6
A    7
F7
A    8
F8
A    9
N1'
A   10
C11
A   11
C12
A   12
C13
A   13
F13
A   14
C14
A   15
C15
A   16
C16
A   17
N1A
A   18
C2'
A   19
C2A
A   20
C3'
A   21
C3A
A   22
C4'
A   23
C4A
A   24
C5'
A   25
C5A
A   26
C6A
A   27
N6A
A   28
C7A
A   29
C8A
M  END
>  <Id>  (13) 
3NLV_3XA_B_800

>  <ChainId>  (13) 
B

>  <AsymId>  (13) 
K

>  <SeqNum>  (13) 
800

>  <Name>  (13) 
6-{[(3S,4S)-4-(2-{[2,2-difluoro-2-(3-fluorophenyl)ethyl]amino}ethoxy)pyrrolidin-3-yl]methyl}-4-methylpyridin-2-amine

>  <SystematicName>  (13) 
6-[[(3S,4S)-4-[2-[[2,2-difluoro-2-(3-fluorophenyl)ethyl]amino]ethoxy]pyrrolidin-3-yl]methyl]-4-methyl-pyridin-2-amine

>  <Synonyms>  (13) 


>  <Type>  (13) 
NON-POLYMER

>  <Formula>  (13) 
C21 H27 F3 N4 O

>  <ObservedFormula>  (13) 
C21 F3 N4 O

>  <MolecularWeight>  (13) 
408.46

>  <ModifiedDate>  (13) 
2011-06-04

>  <Parent>  (13) 


>  <OneLetterCode>  (13) 


>  <SubcomponentList>  (13) 


>  <AmbiguousFlag>  (13) 
N

>  <InsertionCode>  (13) 


>  <InstanceId>  (13) 
3NLV_3XA_B_800

>  <ChemCompId>  (13) 
3XA

>  <PdbId>  (13) 
3NLV

>  <ResidueNumber>  (13) 
800

>  <InChI>  (13) 
InChI=1S/C21H27F3N4O/c1-14-7-18(28-20(25)8-14)9-15-11-27-12-19(15)29-6-5-26-13-21(23,24)16-3-2-4-17(22)10-16/h2-4,7-8,10,15,19,26-27H,5-6,9,11-13H2,1H3,(H2,25,28)/t15-,19+/m0/s1

>  <InChIKey>  (13) 
IRAITVAESBBILD-HNAYVOBHSA-N

>  <SMILES>  (13) 
Cc1cc(nc(c1)N)C[C@H]2CNC[C@H]2OCCNCC(c3cccc(c3)F)(F)F

>  <MissingHeavyAtoms>  (13) 
0

>  <Model>  (13) 
1

>  <AltIds>  (13) 


>  <pKI>  (13) 
7.1

>  <ChemblID>  (13) 
CHEMBL1086859

>  <standardized_canonical_smiles>  (13) 
Cc1cc(N)nc(CC2CNCC2OCCNCC(F)(F)c2cccc(F)c2)c1

$$$$
3N2R_XJH_B_800
     RDKit          3D

 27 30  0  0  0  0  0  0  0  0999 V2000
   12.1420    0.1380   58.6320 N   0  0  0  0  0  0  0  0  0  0  0  0
   11.1960   -0.6400   59.2330 C   0  0  0  0  0  0  0  0  0  0  0  0
   10.8930   -1.8750   58.7660 N   0  0  0  0  0  0  0  0  0  0  0  0
   10.5240   -0.1950   60.3810 C   0  0  0  0  0  0  0  0  0  0  0  0
   10.8170    1.0680   60.8790 C   0  0  0  0  0  0  0  0  0  0  0  0
   11.7520    1.8720   60.2440 C   0  0  0  0  0  0  0  0  0  0  0  0
   12.4190    1.3980   59.1110 C   0  0  0  0  0  0  0  0  0  0  0  0
   13.4450    2.3270   58.4750 C   0  0  0  0  0  0  0  0  0  0  0  0
   16.5730    0.7570   59.4130 N   0  0  0  0  0  0  0  0  0  0  0  0
   16.0220    3.7310   57.4910 O   0  0  0  0  0  0  0  0  0  0  0  0
   17.2640    4.3270   57.2680 C   0  0  0  0  0  0  0  0  0  0  0  0
   18.3630    3.5620   56.8060 C   0  0  0  0  0  0  0  0  0  0  0  0
   19.6280    4.1180   56.5950 C   0  0  0  0  0  0  0  0  0  0  0  0
   19.8090    5.4770   56.8460 C   0  0  0  0  0  0  0  0  0  0  0  0
   18.7360    6.2620   57.3160 C   0  0  0  0  0  0  0  0  0  0  0  0
   17.4680    5.6890   57.5250 C   0  0  0  0  0  0  0  0  0  0  0  0
   15.1340    0.6940   59.3940 C   0  0  0  0  0  0  0  0  0  0  0  0
   18.9260    7.6150   57.5360 O   0  0  0  0  0  0  0  0  0  0  0  0
   19.2540    8.3950   56.4400 C   0  0  0  0  0  0  0  0  0  0  0  0
   18.6150    8.1770   55.2050 C   0  0  0  0  0  0  0  0  0  0  0  0
   18.9530    8.9530   54.0970 C   0  0  0  0  0  0  0  0  0  0  0  0
   19.9320    9.9430   54.2160 C   0  0  0  0  0  0  0  0  0  0  0  0
   20.5750   10.1650   55.4370 C   0  0  0  0  0  0  0  0  0  0  0  0
   20.2370    9.3890   56.5490 C   0  0  0  0  0  0  0  0  0  0  0  0
   14.7340    1.5590   58.2020 C   0  0  0  0  0  0  0  0  0  0  0  0
   16.0040    2.2950   57.7070 C   0  0  0  0  0  0  0  0  0  0  0  0
   17.1250    1.8470   58.6400 C   0  0  0  0  0  0  0  0  0  0  0  0
  2  1  2  0
  7  1  1  0
  3  2  1  0
  4  2  1  0
  5  4  2  0
  6  5  1  0
  7  6  2  0
  8  7  1  0
 25  8  1  0
 17  9  1  0
 27  9  1  0
 11 10  1  0
 26 10  1  0
 12 11  2  0
 16 11  1  0
 13 12  1  0
 14 13  2  0
 15 14  1  0
 16 15  2  0
 18 15  1  0
 25 17  1  0
 19 18  1  0
 20 19  2  0
 24 19  1  0
 21 20  1  0
 22 21  2  0
 23 22  1  0
 24 23  2  0
 26 25  1  0
 27 26  1  0
A    1
N01
A    2
C02
A    3
N02
A    4
C03
A    5
C04
A    6
C05
A    7
C06
A    8
C07
A    9
N1'
A   10
O10
A   11
C11
A   12
C12
A   13
C13
A   14
C14
A   15
C15
A   16
C16
A   17
C2'
A   18
O20
A   19
C21
A   20
C22
A   21
C23
A   22
C24
A   23
C25
A   24
C26
A   25
C3'
A   26
C4'
A   27
C5'
M  END
>  <Id>  (14) 
3N2R_XJH_B_800

>  <ChainId>  (14) 
B

>  <AsymId>  (14) 
K

>  <SeqNum>  (14) 
800

>  <Name>  (14) 
6-{[(3R,4R)-4-(3-phenoxyphenoxy)pyrrolidin-3-yl]methyl}pyridin-2-amine

>  <SystematicName>  (14) 
6-[[(3R,4R)-4-(3-phenoxyphenoxy)pyrrolidin-3-yl]methyl]pyridin-2-amine

>  <Synonyms>  (14) 


>  <Type>  (14) 
NON-POLYMER

>  <Formula>  (14) 
C22 H23 N3 O2

>  <ObservedFormula>  (14) 
C22 N3 O2

>  <MolecularWeight>  (14) 
361.437

>  <ModifiedDate>  (14) 
2011-06-04

>  <Parent>  (14) 


>  <OneLetterCode>  (14) 


>  <SubcomponentList>  (14) 


>  <AmbiguousFlag>  (14) 
N

>  <InsertionCode>  (14) 


>  <InstanceId>  (14) 
3N2R_XJH_B_800

>  <ChemCompId>  (14) 
XJH

>  <PdbId>  (14) 
3N2R

>  <ResidueNumber>  (14) 
800

>  <InChI>  (14) 
InChI=1S/C22H23N3O2/c23-22-11-4-6-17(25-22)12-16-14-24-15-21(16)27-20-10-5-9-19(13-20)26-18-7-2-1-3-8-18/h1-11,13,16,21,24H,12,14-15H2,(H2,23,25)/t16-,21+/m1/s1

>  <InChIKey>  (14) 
MKBQBMWQPUXDQQ-IERDGZPVSA-N

>  <SMILES>  (14) 
c1ccc(cc1)Oc2cccc(c2)O[C@H]3CNC[C@H]3Cc4cccc(n4)N

>  <MissingHeavyAtoms>  (14) 
0

>  <Model>  (14) 
1

>  <AltIds>  (14) 


>  <pKI>  (14) 
5.52

>  <ChemblID>  (14) 
CHEMBL1222608

>  <standardized_canonical_smiles>  (14) 
Nc1cccc(C[C@@H]2CNC[C@@H]2Oc2cccc(Oc3ccccc3)c2)n1

$$$$
3NLQ_JRR_B_800
     RDKit          3D

 27 29  0  0  0  0  0  0  0  0999 V2000
   18.1410    2.3320   56.9910 C   0  0  0  0  0  0  0  0  0  0  0  0
   18.0200    3.5660   56.2940 O   0  0  0  0  0  0  0  0  0  0  0  0
   17.0440    2.3020   58.0450 C   0  0  0  0  0  0  0  0  0  0  0  0
   15.6830    2.2430   57.4850 N   0  0  0  0  0  0  0  0  0  0  0  0
   14.6550    1.4880   58.1870 C   0  0  0  0  0  0  0  0  0  0  0  0
   13.2450    2.0330   57.8280 C   0  0  0  0  0  0  0  0  0  0  0  0
   17.7350    3.5580   53.5290 N   0  0  0  0  0  0  0  0  0  0  0  0
   12.2260    1.2130   58.6280 C   0  0  0  0  0  0  0  0  0  0  0  0
   11.7400    1.7210   59.8330 C   0  0  0  0  0  0  0  0  0  0  0  0
   10.8180    1.0320   60.6220 C   0  0  0  0  0  0  0  0  0  0  0  0
   10.4190    1.5800   61.7980 F   0  0  0  0  0  0  0  0  0  0  0  0
   10.3640   -0.2080   60.1980 C   0  0  0  0  0  0  0  0  0  0  0  0
   10.8110   -0.7400   58.9760 C   0  0  0  0  0  0  0  0  0  0  0  0
   11.7720   -0.0450   58.2160 C   0  0  0  0  0  0  0  0  0  0  0  0
   17.0900    8.3770   55.3160 N   0  0  0  0  0  0  0  0  0  0  0  0
   18.9980    3.0990   54.1300 C   0  0  0  0  0  0  0  0  0  0  0  0
   18.3180    7.7600   55.3410 C   0  0  0  0  0  0  0  0  0  0  0  0
   19.0940    3.9690   55.3840 C   0  0  0  0  0  0  0  0  0  0  0  0
   19.4480    8.4180   54.8750 C   0  0  0  0  0  0  0  0  0  0  0  0
   18.6800    5.3060   54.7840 C   0  0  0  0  0  0  0  0  0  0  0  0
   19.2910    9.7250   54.4170 C   0  0  0  0  0  0  0  0  0  0  0  0
   17.4420    4.9480   53.9110 C   0  0  0  0  0  0  0  0  0  0  0  0
   18.0220   10.3530   54.4180 C   0  0  0  0  0  0  0  0  0  0  0  0
   16.9010    9.6510   54.8660 C   0  0  0  0  0  0  0  0  0  0  0  0
   15.6380   10.1920   54.9070 N   0  0  0  0  0  0  0  0  0  0  0  0
   18.3970    6.3480   55.8720 C   0  0  0  0  0  0  0  0  0  0  0  0
   20.5130   10.4460   53.9330 C   0  0  0  0  0  0  0  0  0  0  0  0
  2  1  1  0
  3  1  1  0
 18  2  1  0
  4  3  1  0
  5  4  1  0
  6  5  1  0
  8  6  1  0
 16  7  1  0
 22  7  1  0
  9  8  2  0
 14  8  1  0
 10  9  1  0
 11 10  1  0
 12 10  2  0
 13 12  1  0
 14 13  2  0
 17 15  2  0
 24 15  1  0
 18 16  1  0
 19 17  1  0
 26 17  1  0
 20 18  1  0
 21 19  2  0
 22 20  1  0
 26 20  1  0
 23 21  1  0
 27 21  1  0
 24 23  2  0
 25 24  1  0
A    1
C1
A    2
O1
A    3
C2
A    4
N2
A    5
C3
A    6
C4
A    7
N1'
A    8
C11
A    9
C12
A   10
C13
A   11
F13
A   12
C14
A   13
C15
A   14
C16
A   15
N1A
A   16
C2'
A   17
C2A
A   18
C3'
A   19
C3A
A   20
C4'
A   21
C4A
A   22
C5'
A   23
C5A
A   24
C6A
A   25
N6A
A   26
C7A
A   27
C8A
M  END
>  <Id>  (15) 
3NLQ_JRR_B_800

>  <ChainId>  (15) 
B

>  <AsymId>  (15) 
K

>  <SeqNum>  (15) 
800

>  <Name>  (15) 
6-{[(3R,4R)-4-(2-{[2-(3-fluorophenyl)ethyl]amino}ethoxy)pyrrolidin-3-yl]methyl}-4-methylpyridin-2-amine

>  <SystematicName>  (15) 
6-[[(3R,4R)-4-[2-[2-(3-fluorophenyl)ethylamino]ethoxy]pyrrolidin-3-yl]methyl]-4-methyl-pyridin-2-amine

>  <Synonyms>  (15) 


>  <Type>  (15) 
NON-POLYMER

>  <Formula>  (15) 
C21 H29 F N4 O

>  <ObservedFormula>  (15) 
C21 F N4 O

>  <MolecularWeight>  (15) 
372.48

>  <ModifiedDate>  (15) 
2011-06-04

>  <Parent>  (15) 


>  <OneLetterCode>  (15) 


>  <SubcomponentList>  (15) 


>  <AmbiguousFlag>  (15) 
N

>  <InsertionCode>  (15) 


>  <InstanceId>  (15) 
3NLQ_JRR_B_800

>  <ChemCompId>  (15) 
JRR

>  <PdbId>  (15) 
3NLQ

>  <ResidueNumber>  (15) 
800

>  <InChI>  (15) 
InChI=1S/C21H29FN4O/c1-15-9-19(26-21(23)10-15)12-17-13-25-14-20(17)27-8-7-24-6-5-16-3-2-4-18(22)11-16/h2-4,9-11,17,20,24-25H,5-8,12-14H2,1H3,(H2,23,26)/t17-,20+/m1/s1

>  <InChIKey>  (15) 
NESZTSPBRDBHCW-XLIONFOSSA-N

>  <SMILES>  (15) 
Cc1cc(nc(c1)N)C[C@@H]2CNC[C@@H]2OCCNCCc3cccc(c3)F

>  <MissingHeavyAtoms>  (15) 
0

>  <Model>  (15) 
1

>  <AltIds>  (15) 


>  <pKI>  (15) 
8.15

>  <ChemblID>  (15) 
CHEMBL607146

>  <standardized_canonical_smiles>  (15) 
Cc1cc(N)nc(C[C@@H]2CNC[C@@H]2OCCNCCc2cccc(F)c2)c1

$$$$
3NLM_JRR_B_800
     RDKit          3D

 27 29  0  0  0  0  0  0  0  0999 V2000
   18.0060    2.4010   57.0220 C   0  0  0  0  0  0  0  0  0  0  0  0
   17.7670    3.6240   56.3240 O   0  0  0  0  0  0  0  0  0  0  0  0
   16.9220    2.1790   58.0810 C   0  0  0  0  0  0  0  0  0  0  0  0
   15.5810    2.2110   57.5080 N   0  0  0  0  0  0  0  0  0  0  0  0
   14.4980    1.5370   58.1830 C   0  0  0  0  0  0  0  0  0  0  0  0
   13.1030    2.1430   57.9460 C   0  0  0  0  0  0  0  0  0  0  0  0
   17.5030    3.7860   53.5030 N   0  0  0  0  0  0  0  0  0  0  0  0
   12.1100    1.2800   58.7200 C   0  0  0  0  0  0  0  0  0  0  0  0
   11.6240    1.7240   59.9470 C   0  0  0  0  0  0  0  0  0  0  0  0
   10.7260    0.9680   60.6980 C   0  0  0  0  0  0  0  0  0  0  0  0
   10.3100    1.4570   61.8900 F   0  0  0  0  0  0  0  0  0  0  0  0
   10.3040   -0.2620   60.2230 C   0  0  0  0  0  0  0  0  0  0  0  0
   10.7830   -0.7310   58.9960 C   0  0  0  0  0  0  0  0  0  0  0  0
   11.6790    0.0340   58.2540 C   0  0  0  0  0  0  0  0  0  0  0  0
   16.9860    8.4790   55.3610 N   0  0  0  0  0  0  0  0  0  0  0  0
   18.5980    3.1070   54.1810 C   0  0  0  0  0  0  0  0  0  0  0  0
   18.1750    7.8160   55.3630 C   0  0  0  0  0  0  0  0  0  0  0  0
   18.8170    3.9910   55.4130 C   0  0  0  0  0  0  0  0  0  0  0  0
   19.3220    8.4120   54.8110 C   0  0  0  0  0  0  0  0  0  0  0  0
   18.5640    5.3980   54.8920 C   0  0  0  0  0  0  0  0  0  0  0  0
   19.2040    9.6890   54.2370 C   0  0  0  0  0  0  0  0  0  0  0  0
   17.3960    5.1930   53.9090 C   0  0  0  0  0  0  0  0  0  0  0  0
   17.9530   10.3420   54.2350 C   0  0  0  0  0  0  0  0  0  0  0  0
   16.8470    9.7130   54.8040 C   0  0  0  0  0  0  0  0  0  0  0  0
   15.6220   10.3410   54.8090 N   0  0  0  0  0  0  0  0  0  0  0  0
   18.2440    6.4430   55.9770 C   0  0  0  0  0  0  0  0  0  0  0  0
   20.4030   10.3570   53.6120 C   0  0  0  0  0  0  0  0  0  0  0  0
  2  1  1  0
  3  1  1  0
 18  2  1  0
  4  3  1  0
  5  4  1  0
  6  5  1  0
  8  6  1  0
 16  7  1  0
 22  7  1  0
  9  8  2  0
 14  8  1  0
 10  9  1  0
 11 10  1  0
 12 10  2  0
 13 12  1  0
 14 13  2  0
 17 15  2  0
 24 15  1  0
 18 16  1  0
 19 17  1  0
 26 17  1  0
 20 18  1  0
 21 19  2  0
 22 20  1  0
 26 20  1  0
 23 21  1  0
 27 21  1  0
 24 23  2  0
 25 24  1  0
A    1
C1
A    2
O1
A    3
C2
A    4
N2
A    5
C3
A    6
C4
A    7
N1'
A    8
C11
A    9
C12
A   10
C13
A   11
F13
A   12
C14
A   13
C15
A   14
C16
A   15
N1A
A   16
C2'
A   17
C2A
A   18
C3'
A   19
C3A
A   20
C4'
A   21
C4A
A   22
C5'
A   23
C5A
A   24
C6A
A   25
N6A
A   26
C7A
A   27
C8A
M  END
>  <Id>  (16) 
3NLM_JRR_B_800

>  <ChainId>  (16) 
B

>  <AsymId>  (16) 
J

>  <SeqNum>  (16) 
800

>  <Name>  (16) 
6-{[(3R,4R)-4-(2-{[2-(3-fluorophenyl)ethyl]amino}ethoxy)pyrrolidin-3-yl]methyl}-4-methylpyridin-2-amine

>  <SystematicName>  (16) 
6-[[(3R,4R)-4-[2-[2-(3-fluorophenyl)ethylamino]ethoxy]pyrrolidin-3-yl]methyl]-4-methyl-pyridin-2-amine

>  <Synonyms>  (16) 


>  <Type>  (16) 
NON-POLYMER

>  <Formula>  (16) 
C21 H29 F N4 O

>  <ObservedFormula>  (16) 
C21 F N4 O

>  <MolecularWeight>  (16) 
372.48

>  <ModifiedDate>  (16) 
2011-06-04

>  <Parent>  (16) 


>  <OneLetterCode>  (16) 


>  <SubcomponentList>  (16) 


>  <AmbiguousFlag>  (16) 
N

>  <InsertionCode>  (16) 


>  <InstanceId>  (16) 
3NLM_JRR_B_800

>  <ChemCompId>  (16) 
JRR

>  <PdbId>  (16) 
3NLM

>  <ResidueNumber>  (16) 
800

>  <InChI>  (16) 
InChI=1S/C21H29FN4O/c1-15-9-19(26-21(23)10-15)12-17-13-25-14-20(17)27-8-7-24-6-5-16-3-2-4-18(22)11-16/h2-4,9-11,17,20,24-25H,5-8,12-14H2,1H3,(H2,23,26)/t17-,20+/m1/s1

>  <InChIKey>  (16) 
NESZTSPBRDBHCW-XLIONFOSSA-N

>  <SMILES>  (16) 
Cc1cc(nc(c1)N)C[C@@H]2CNC[C@@H]2OCCNCCc3cccc(c3)F

>  <MissingHeavyAtoms>  (16) 
0

>  <Model>  (16) 
1

>  <AltIds>  (16) 


>  <pKI>  (16) 
8.15

>  <ChemblID>  (16) 
CHEMBL607146

>  <standardized_canonical_smiles>  (16) 
Cc1cc(N)nc(C[C@@H]2CNC[C@@H]2OCCNCCc2cccc(F)c2)c1

$$$$
3NLJ_JRR_B_800
     RDKit          3D

 27 29  0  0  0  0  0  0  0  0999 V2000
   17.9270    2.3700   56.9940 C   0  0  0  0  0  0  0  0  0  0  0  0
   17.7760    3.3130   55.9470 O   0  0  0  0  0  0  0  0  0  0  0  0
   16.6770    2.5070   57.8510 C   0  0  0  0  0  0  0  0  0  0  0  0
   15.4320    2.0770   57.2130 N   0  0  0  0  0  0  0  0  0  0  0  0
   14.3600    1.5910   58.0590 C   0  0  0  0  0  0  0  0  0  0  0  0
   12.9220    1.9800   57.6600 C   0  0  0  0  0  0  0  0  0  0  0  0
   17.8520    3.6280   53.2140 N   0  0  0  0  0  0  0  0  0  0  0  0
   11.9860    1.0850   58.4700 C   0  0  0  0  0  0  0  0  0  0  0  0
   11.5840    1.5170   59.7250 C   0  0  0  0  0  0  0  0  0  0  0  0
   10.7760    0.7250   60.4990 C   0  0  0  0  0  0  0  0  0  0  0  0
   10.4300    1.2090   61.6900 F   0  0  0  0  0  0  0  0  0  0  0  0
   10.3150   -0.5100   60.0480 C   0  0  0  0  0  0  0  0  0  0  0  0
   10.6970   -0.9630   58.7930 C   0  0  0  0  0  0  0  0  0  0  0  0
   11.5450   -0.1610   58.0170 C   0  0  0  0  0  0  0  0  0  0  0  0
   17.2910    8.3200   55.2980 N   0  0  0  0  0  0  0  0  0  0  0  0
   18.9110    2.9370   53.9480 C   0  0  0  0  0  0  0  0  0  0  0  0
   18.4270    7.5820   55.3030 C   0  0  0  0  0  0  0  0  0  0  0  0
   18.9660    3.7210   55.2520 C   0  0  0  0  0  0  0  0  0  0  0  0
   19.6210    8.1450   54.8300 C   0  0  0  0  0  0  0  0  0  0  0  0
   18.7850    5.1480   54.7560 C   0  0  0  0  0  0  0  0  0  0  0  0
   19.6190    9.4590   54.3680 C   0  0  0  0  0  0  0  0  0  0  0  0
   17.7620    5.0250   53.6160 C   0  0  0  0  0  0  0  0  0  0  0  0
   18.4240   10.1930   54.3760 C   0  0  0  0  0  0  0  0  0  0  0  0
   17.2500    9.5870   54.8470 C   0  0  0  0  0  0  0  0  0  0  0  0
   16.0740   10.2420   54.8910 N   0  0  0  0  0  0  0  0  0  0  0  0
   18.3560    6.1550   55.8260 C   0  0  0  0  0  0  0  0  0  0  0  0
   20.8960   10.0830   53.8630 C   0  0  0  0  0  0  0  0  0  0  0  0
  2  1  1  0
  3  1  1  0
 18  2  1  0
  4  3  1  0
  5  4  1  0
  6  5  1  0
  8  6  1  0
 16  7  1  0
 22  7  1  0
  9  8  2  0
 14  8  1  0
 10  9  1  0
 11 10  1  0
 12 10  2  0
 13 12  1  0
 14 13  2  0
 17 15  2  0
 24 15  1  0
 18 16  1  0
 19 17  1  0
 26 17  1  0
 20 18  1  0
 21 19  2  0
 22 20  1  0
 26 20  1  0
 23 21  1  0
 27 21  1  0
 24 23  2  0
 25 24  1  0
A    1
C1
A    2
O1
A    3
C2
A    4
N2
A    5
C3
A    6
C4
A    7
N1'
A    8
C11
A    9
C12
A   10
C13
A   11
F13
A   12
C14
A   13
C15
A   14
C16
A   15
N1A
A   16
C2'
A   17
C2A
A   18
C3'
A   19
C3A
A   20
C4'
A   21
C4A
A   22
C5'
A   23
C5A
A   24
C6A
A   25
N6A
A   26
C7A
A   27
C8A
M  END
>  <Id>  (17) 
3NLJ_JRR_B_800

>  <ChainId>  (17) 
B

>  <AsymId>  (17) 
I

>  <SeqNum>  (17) 
800

>  <Name>  (17) 
6-{[(3R,4R)-4-(2-{[2-(3-fluorophenyl)ethyl]amino}ethoxy)pyrrolidin-3-yl]methyl}-4-methylpyridin-2-amine

>  <SystematicName>  (17) 
6-[[(3R,4R)-4-[2-[2-(3-fluorophenyl)ethylamino]ethoxy]pyrrolidin-3-yl]methyl]-4-methyl-pyridin-2-amine

>  <Synonyms>  (17) 


>  <Type>  (17) 
NON-POLYMER

>  <Formula>  (17) 
C21 H29 F N4 O

>  <ObservedFormula>  (17) 
C21 F N4 O

>  <MolecularWeight>  (17) 
372.48

>  <ModifiedDate>  (17) 
2011-06-04

>  <Parent>  (17) 


>  <OneLetterCode>  (17) 


>  <SubcomponentList>  (17) 


>  <AmbiguousFlag>  (17) 
N

>  <InsertionCode>  (17) 


>  <InstanceId>  (17) 
3NLJ_JRR_B_800

>  <ChemCompId>  (17) 
JRR

>  <PdbId>  (17) 
3NLJ

>  <ResidueNumber>  (17) 
800

>  <InChI>  (17) 
InChI=1S/C21H29FN4O/c1-15-9-19(26-21(23)10-15)12-17-13-25-14-20(17)27-8-7-24-6-5-16-3-2-4-18(22)11-16/h2-4,9-11,17,20,24-25H,5-8,12-14H2,1H3,(H2,23,26)/t17-,20+/m1/s1

>  <InChIKey>  (17) 
NESZTSPBRDBHCW-XLIONFOSSA-N

>  <SMILES>  (17) 
Cc1cc(nc(c1)N)C[C@@H]2CNC[C@@H]2OCCNCCc3cccc(c3)F

>  <MissingHeavyAtoms>  (17) 
0

>  <Model>  (17) 
1

>  <AltIds>  (17) 


>  <pKI>  (17) 
8.15

>  <ChemblID>  (17) 
CHEMBL607146

>  <standardized_canonical_smiles>  (17) 
Cc1cc(N)nc(C[C@@H]2CNC[C@@H]2OCCNCCc2cccc(F)c2)c1

$$$$
3NNY_59R_B_800
     RDKit          3D

 26 28  0  0  0  0  0  0  0  0999 V2000
   18.0920    2.4360   57.1450 C   0  0  0  0  0  0  0  0  0  0  0  0
   18.0290    3.6710   56.4520 O   0  0  0  0  0  0  0  0  0  0  0  0
   16.9840    2.4290   58.1840 C   0  0  0  0  0  0  0  0  0  0  0  0
   15.6400    2.2830   57.6280 N   0  0  0  0  0  0  0  0  0  0  0  0
   14.6730    1.4900   58.3720 C   0  0  0  0  0  0  0  0  0  0  0  0
   13.2450    2.0420   58.1990 C   0  0  0  0  0  0  0  0  0  0  0  0
   17.8560    3.6450   53.6530 N   0  0  0  0  0  0  0  0  0  0  0  0
   12.2430    1.1520   58.9460 C   0  0  0  0  0  0  0  0  0  0  0  0
   11.7040    1.6080   60.1550 C   0  0  0  0  0  0  0  0  0  0  0  0
   10.8000    0.8400   60.8730 C   0  0  0  0  0  0  0  0  0  0  0  0
   10.3190    1.3470   62.0160 F   0  0  0  0  0  0  0  0  0  0  0  0
   10.3950   -0.4060   60.4050 C   0  0  0  0  0  0  0  0  0  0  0  0
   10.9150   -0.8800   59.1970 C   0  0  0  0  0  0  0  0  0  0  0  0
   11.8400   -0.1040   58.4770 C   0  0  0  0  0  0  0  0  0  0  0  0
   17.2200    8.4460   55.5210 N   0  0  0  0  0  0  0  0  0  0  0  0
   19.0080    3.0600   54.3270 C   0  0  0  0  0  0  0  0  0  0  0  0
   18.4160    7.8020   55.4890 C   0  0  0  0  0  0  0  0  0  0  0  0
   19.1180    3.9610   55.5630 C   0  0  0  0  0  0  0  0  0  0  0  0
   19.5330    8.4370   54.9290 C   0  0  0  0  0  0  0  0  0  0  0  0
   18.8360    5.3410   54.9880 C   0  0  0  0  0  0  0  0  0  0  0  0
   19.4040    9.7360   54.4130 C   0  0  0  0  0  0  0  0  0  0  0  0
   17.6880    5.0590   53.9990 C   0  0  0  0  0  0  0  0  0  0  0  0
   18.1590   10.3790   54.4640 C   0  0  0  0  0  0  0  0  0  0  0  0
   17.0600    9.7090   55.0210 C   0  0  0  0  0  0  0  0  0  0  0  0
   15.8480   10.3130   55.0950 N   0  0  0  0  0  0  0  0  0  0  0  0
   18.4990    6.3950   56.0550 C   0  0  0  0  0  0  0  0  0  0  0  0
  2  1  1  0
  3  1  1  0
 18  2  1  0
  4  3  1  0
  5  4  1  0
  6  5  1  0
  8  6  1  0
 16  7  1  0
 22  7  1  0
  9  8  2  0
 14  8  1  0
 10  9  1  0
 11 10  1  0
 12 10  2  0
 13 12  1  0
 14 13  2  0
 17 15  2  0
 24 15  1  0
 18 16  1  0
 19 17  1  0
 26 17  1  0
 20 18  1  0
 21 19  2  0
 22 20  1  0
 26 20  1  0
 23 21  1  0
 24 23  2  0
 25 24  1  0
A    1
C1
A    2
O1
A    3
C2
A    4
N2
A    5
C3
A    6
C4
A    7
N1'
A    8
C11
A    9
C12
A   10
C13
A   11
F13
A   12
C14
A   13
C15
A   14
C16
A   15
N1A
A   16
C2'
A   17
C2A
A   18
C3'
A   19
C3A
A   20
C4'
A   21
C4A
A   22
C5'
A   23
C5A
A   24
C6A
A   25
N6A
A   26
C7A
M  END
>  <Id>  (18) 
3NNY_59R_B_800

>  <ChainId>  (18) 
B

>  <AsymId>  (18) 
J

>  <SeqNum>  (18) 
800

>  <Name>  (18) 
6-{[(3R,4R)-4-(2-{[2-(3-fluorophenyl)ethyl]amino}ethoxy)pyrrolidin-3-yl]methyl}pyridin-2-amine

>  <SystematicName>  (18) 
6-[[(3R,4R)-4-[2-[2-(3-fluorophenyl)ethylamino]ethoxy]pyrrolidin-3-yl]methyl]pyridin-2-amine

>  <Synonyms>  (18) 


>  <Type>  (18) 
NON-POLYMER

>  <Formula>  (18) 
C20 H27 F N4 O

>  <ObservedFormula>  (18) 
C20 F N4 O

>  <MolecularWeight>  (18) 
358.453

>  <ModifiedDate>  (18) 
2011-06-04

>  <Parent>  (18) 


>  <OneLetterCode>  (18) 


>  <SubcomponentList>  (18) 


>  <AmbiguousFlag>  (18) 
N

>  <InsertionCode>  (18) 


>  <InstanceId>  (18) 
3NNY_59R_B_800

>  <ChemCompId>  (18) 
59R

>  <PdbId>  (18) 
3NNY

>  <ResidueNumber>  (18) 
800

>  <InChI>  (18) 
InChI=1S/C20H27FN4O/c21-17-4-1-3-15(11-17)7-8-23-9-10-26-19-14-24-13-16(19)12-18-5-2-6-20(22)25-18/h1-6,11,16,19,23-24H,7-10,12-14H2,(H2,22,25)/t16-,19+/m1/s1

>  <InChIKey>  (18) 
LRTPFJLYXDIXQR-APWZRJJASA-N

>  <SMILES>  (18) 
c1cc(cc(c1)F)CCNCCO[C@H]2CNC[C@H]2Cc3cccc(n3)N

>  <MissingHeavyAtoms>  (18) 
0

>  <Model>  (18) 
1

>  <AltIds>  (18) 


>  <pKI>  (18) 
7.3

>  <ChemblID>  (18) 
CHEMBL1230380

>  <standardized_canonical_smiles>  (18) 
Nc1cccc(C[C@@H]2CNC[C@@H]2OCCNCCc2cccc(F)c2)n1

$$$$
3NNZ_59W_B_800
     RDKit          3D

 26 28  0  0  0  0  0  0  0  0999 V2000
   16.6120    4.2770   58.0640 C   0  0  0  0  0  0  0  0  0  0  0  0
   15.8250    3.2240   57.5050 O   0  0  0  0  0  0  0  0  0  0  0  0
   17.7360    4.5900   57.0920 C   0  0  0  0  0  0  0  0  0  0  0  0
   17.2120    5.1570   55.8570 N   0  0  0  0  0  0  0  0  0  0  0  0
   18.1040    5.9170   55.0020 C   0  0  0  0  0  0  0  0  0  0  0  0
   18.3850    7.2740   55.6310 C   0  0  0  0  0  0  0  0  0  0  0  0
   16.1480   -0.3400   57.2480 N   0  0  0  0  0  0  0  0  0  0  0  0
   19.0420    8.1980   54.6400 C   0  0  0  0  0  0  0  0  0  0  0  0
   18.2700    9.2150   54.0950 C   0  0  0  0  0  0  0  0  0  0  0  0
   18.8360   10.0950   53.1830 C   0  0  0  0  0  0  0  0  0  0  0  0
   18.0540   11.0680   52.6650 F   0  0  0  0  0  0  0  0  0  0  0  0
   20.1850    9.9720   52.8180 C   0  0  0  0  0  0  0  0  0  0  0  0
   20.9590    8.9370   53.3610 C   0  0  0  0  0  0  0  0  0  0  0  0
   20.3790    8.0470   54.2760 C   0  0  0  0  0  0  0  0  0  0  0  0
   12.0410   -0.1100   58.4590 N   0  0  0  0  0  0  0  0  0  0  0  0
   16.6910    0.9550   56.8580 C   0  0  0  0  0  0  0  0  0  0  0  0
   12.4800    1.0770   58.9470 C   0  0  0  0  0  0  0  0  0  0  0  0
   16.2230    1.9300   57.9730 C   0  0  0  0  0  0  0  0  0  0  0  0
   11.8600    1.5980   60.0940 C   0  0  0  0  0  0  0  0  0  0  0  0
   15.0450    1.2640   58.6840 C   0  0  0  0  0  0  0  0  0  0  0  0
   10.8240    0.9110   60.7400 C   0  0  0  0  0  0  0  0  0  0  0  0
   15.3150   -0.2330   58.4530 C   0  0  0  0  0  0  0  0  0  0  0  0
   10.3990   -0.3130   60.2070 C   0  0  0  0  0  0  0  0  0  0  0  0
   11.0300   -0.8030   59.0540 C   0  0  0  0  0  0  0  0  0  0  0  0
   10.6460   -1.9930   58.5060 N   0  0  0  0  0  0  0  0  0  0  0  0
   13.6410    1.8080   58.2570 C   0  0  0  0  0  0  0  0  0  0  0  0
  2  1  1  0
  3  1  1  0
 18  2  1  0
  4  3  1  0
  5  4  1  0
  6  5  1  0
  8  6  1  0
 16  7  1  0
 22  7  1  0
  9  8  2  0
 14  8  1  0
 10  9  1  0
 11 10  1  0
 12 10  2  0
 13 12  1  0
 14 13  2  0
 17 15  2  0
 24 15  1  0
 18 16  1  0
 19 17  1  0
 26 17  1  0
 20 18  1  0
 21 19  2  0
 22 20  1  0
 26 20  1  0
 23 21  1  0
 24 23  2  0
 25 24  1  0
A    1
C1
A    2
O1
A    3
C2
A    4
N2
A    5
C3
A    6
C4
A    7
N1'
A    8
C11
A    9
C12
A   10
C13
A   11
F13
A   12
C14
A   13
C15
A   14
C16
A   15
N1A
A   16
C2'
A   17
C2A
A   18
C3'
A   19
C3A
A   20
C4'
A   21
C4A
A   22
C5'
A   23
C5A
A   24
C6A
A   25
N6A
A   26
C7A
M  END
>  <Id>  (19) 
3NNZ_59W_B_800

>  <ChainId>  (19) 
B

>  <AsymId>  (19) 
K

>  <SeqNum>  (19) 
800

>  <Name>  (19) 
6-{[(3S,4S)-4-(2-{[2-(3-fluorophenyl)ethyl]amino}ethoxy)pyrrolidin-3-yl]methyl}pyridin-2-amine

>  <SystematicName>  (19) 
6-[[(3S,4S)-4-[2-[2-(3-fluorophenyl)ethylamino]ethoxy]pyrrolidin-3-yl]methyl]pyridin-2-amine

>  <Synonyms>  (19) 


>  <Type>  (19) 
NON-POLYMER

>  <Formula>  (19) 
C20 H27 F N4 O

>  <ObservedFormula>  (19) 
C20 F N4 O

>  <MolecularWeight>  (19) 
358.453

>  <ModifiedDate>  (19) 
2011-06-04

>  <Parent>  (19) 


>  <OneLetterCode>  (19) 


>  <SubcomponentList>  (19) 


>  <AmbiguousFlag>  (19) 
N

>  <InsertionCode>  (19) 


>  <InstanceId>  (19) 
3NNZ_59W_B_800

>  <ChemCompId>  (19) 
59W

>  <PdbId>  (19) 
3NNZ

>  <ResidueNumber>  (19) 
800

>  <InChI>  (19) 
InChI=1S/C20H27FN4O/c21-17-4-1-3-15(11-17)7-8-23-9-10-26-19-14-24-13-16(19)12-18-5-2-6-20(22)25-18/h1-6,11,16,19,23-24H,7-10,12-14H2,(H2,22,25)/t16-,19+/m0/s1

>  <InChIKey>  (19) 
LRTPFJLYXDIXQR-QFBILLFUSA-N

>  <SMILES>  (19) 
c1cc(cc(c1)F)CCNCCO[C@@H]2CNC[C@@H]2Cc3cccc(n3)N

>  <MissingHeavyAtoms>  (19) 
0

>  <Model>  (19) 
1

>  <AltIds>  (19) 


>  <pKI>  (19) 
6.66

>  <ChemblID>  (19) 
CHEMBL1230381

>  <standardized_canonical_smiles>  (19) 
Nc1cccc(C[C@H]2CNC[C@H]2OCCNCCc2cccc(F)c2)n1

$$$$
3B3O_JI3_B_800
     RDKit          3D

 26 28  0  0  0  0  0  0  0  0999 V2000
   18.8690    8.9260   55.3440 C   0  0  0  0  0  0  0  0  0  0  0  0
   19.8700    9.9420   55.3680 C   0  0  0  0  0  0  0  0  0  0  0  0
   21.1250    9.7250   54.7160 C   0  0  0  0  0  0  0  0  0  0  0  0
   22.3840   10.9880   54.7680 Cl  0  0  0  0  0  0  0  0  0  0  0  0
   21.3700    8.4850   54.0330 C   0  0  0  0  0  0  0  0  0  0  0  0
   20.3660    7.4720   54.0130 C   0  0  0  0  0  0  0  0  0  0  0  0
   19.1200    7.6970   54.6710 C   0  0  0  0  0  0  0  0  0  0  0  0
   11.1870   -0.7820   59.0410 C   0  0  0  0  0  0  0  0  0  0  0  0
   10.6870   -1.9050   58.5370 N   0  0  0  0  0  0  0  0  0  0  0  0
   10.5710   -0.1210   60.1870 C   0  0  0  0  0  0  0  0  0  0  0  0
   11.1790    1.1150   60.6760 C   0  0  0  0  0  0  0  0  0  0  0  0
   12.3700    1.6810   60.0470 C   0  0  0  0  0  0  0  0  0  0  0  0
   12.9260    0.9690   58.9190 C   0  0  0  0  0  0  0  0  0  0  0  0
   12.3280   -0.2080   58.4680 N   0  0  0  0  0  0  0  0  0  0  0  0
   16.2310   -0.6940   57.4140 N   0  0  0  0  0  0  0  0  0  0  0  0
   16.9030    0.5550   56.8850 C   0  0  0  0  0  0  0  0  0  0  0  0
   16.7760    1.5980   58.0720 C   0  0  0  0  0  0  0  0  0  0  0  0
   15.5630    1.0870   58.8900 C   0  0  0  0  0  0  0  0  0  0  0  0
   15.8200   -0.4530   58.8240 C   0  0  0  0  0  0  0  0  0  0  0  0
   14.1880    1.4940   58.1880 C   0  0  0  0  0  0  0  0  0  0  0  0
   10.5670    1.8500   61.8810 C   0  0  0  0  0  0  0  0  0  0  0  0
   16.5380    2.9600   57.5060 N   0  0  0  0  0  0  0  0  0  0  0  0
   17.7030    3.7420   57.0470 C   0  0  0  0  0  0  0  0  0  0  0  0
   17.2490    4.8010   56.0670 C   0  0  0  0  0  0  0  0  0  0  0  0
   18.4410    5.5750   55.6550 N   0  0  0  0  0  0  0  0  0  0  0  0
   18.0510    6.6040   54.6660 C   0  0  0  0  0  0  0  0  0  0  0  0
  2  1  2  0
  7  1  1  0
  3  2  1  0
  4  3  1  0
  5  3  2  0
  6  5  1  0
  7  6  2  0
 26  7  1  0
  9  8  1  0
 10  8  2  0
 14  8  1  0
 11 10  1  0
 12 11  2  0
 21 11  1  0
 13 12  1  0
 14 13  2  0
 20 13  1  0
 16 15  1  0
 19 15  1  0
 17 16  1  0
 18 17  1  0
 22 17  1  0
 19 18  1  0
 20 18  1  0
 23 22  1  0
 24 23  1  0
 25 24  1  0
 26 25  1  0
A    1
C21
A    2
C22
A    3
C23
A    4
CL
A    5
C24
A    6
C25
A    7
C26
A    8
C6
A    9
N6
A   10
C5
A   11
C4
A   12
C3
A   13
C2
A   14
N1
A   15
N1'
A   16
C2'
A   17
C3'
A   18
C4'
A   19
C5'
A   20
C7
A   21
C8
A   22
N8
A   23
C9
A   24
C10
A   25
N11
A   26
C12
M  END
>  <Id>  (20) 
3B3O_JI3_B_800

>  <ChainId>  (20) 
B

>  <AsymId>  (20) 
K

>  <SeqNum>  (20) 
800

>  <Name>  (20) 
N-{(3S,4S)-4-[(6-AMINO-4-METHYLPYRIDIN-2-YL)METHYL]PYRROLIDIN-3-YL}-N'-(4-CHLOROBENZYL)ETHANE-1,2-DIAMINE

>  <SystematicName>  (20) 
N-[(3S,4S)-4-[(6-amino-4-methyl-pyridin-2-yl)methyl]pyrrolidin-3-yl]-N'-[(4-chlorophenyl)methyl]ethane-1,2-diamine

>  <Synonyms>  (20) 


>  <Type>  (20) 
NON-POLYMER

>  <Formula>  (20) 
C20 H28 Cl N5

>  <ObservedFormula>  (20) 
C20 Cl N5

>  <MolecularWeight>  (20) 
373.923

>  <ModifiedDate>  (20) 
2011-06-04

>  <Parent>  (20) 


>  <OneLetterCode>  (20) 


>  <SubcomponentList>  (20) 


>  <AmbiguousFlag>  (20) 


>  <InsertionCode>  (20) 


>  <InstanceId>  (20) 
3B3O_JI3_B_800

>  <ChemCompId>  (20) 
JI3

>  <PdbId>  (20) 
3B3O

>  <ResidueNumber>  (20) 
800

>  <InChI>  (20) 
InChI=1S/C20H28ClN5/c1-14-8-18(26-20(22)9-14)10-16-12-24-13-19(16)25-7-6-23-11-15-2-4-17(21)5-3-15/h2-5,8-9,16,19,23-25H,6-7,10-13H2,1H3,(H2,22,26)/t16-,19+/m0/s1

>  <InChIKey>  (20) 
JDRSQGJWTVRNGM-QFBILLFUSA-N

>  <SMILES>  (20) 
Cc1cc(nc(c1)N)C[C@H]2CNC[C@H]2NCCNCc3ccc(cc3)Cl

>  <MissingHeavyAtoms>  (20) 
0

>  <Model>  (20) 
1

>  <AltIds>  (20) 


>  <pKI>  (20) 
4.35

>  <ChemblID>  (20) 
CHEMBL1277327

>  <standardized_canonical_smiles>  (20) 
Cc1cc(N)nc(C[C@H]2CNC[C@@H]2NCCNCc2ccc(Cl)cc2)c1

$$$$
3B3P_JI7_B_800
     RDKit          3D

 26 28  0  0  0  0  0  0  0  0999 V2000
   10.5940   -0.0770   59.9460 C   0  0  0  0  0  0  0  0  0  0  0  0
   11.0750    1.2020   60.3340 C   0  0  0  0  0  0  0  0  0  0  0  0
   12.1530    1.7670   59.5900 C   0  0  0  0  0  0  0  0  0  0  0  0
   12.7010    1.0450   58.5080 C   0  0  0  0  0  0  0  0  0  0  0  0
   12.2170   -0.1910   58.1550 N   0  0  0  0  0  0  0  0  0  0  0  0
   11.1940   -0.7590   58.8350 C   0  0  0  0  0  0  0  0  0  0  0  0
   13.8350    1.5300   57.6360 C   0  0  0  0  0  0  0  0  0  0  0  0
   15.2820    1.3780   58.1720 C   0  0  0  0  0  0  0  0  0  0  0  0
   16.2830    1.8840   57.0940 C   0  0  0  0  0  0  0  0  0  0  0  0
   16.8790    0.5660   56.5080 C   0  0  0  0  0  0  0  0  0  0  0  0
   16.0990   -0.5320   57.0770 N   0  0  0  0  0  0  0  0  0  0  0  0
   15.7470   -0.0690   58.4200 C   0  0  0  0  0  0  0  0  0  0  0  0
   17.3190    2.7770   57.6690 N   0  0  0  0  0  0  0  0  0  0  0  0
   17.0810    4.2140   57.4130 C   0  0  0  0  0  0  0  0  0  0  0  0
   17.2310    4.5810   55.9210 C   0  0  0  0  0  0  0  0  0  0  0  0
   18.3460    5.5170   55.7030 N   0  0  0  0  0  0  0  0  0  0  0  0
   19.1410    5.1010   54.5450 C   0  0  0  0  0  0  0  0  0  0  0  0
   20.3080    6.0290   54.2510 C   0  0  0  0  0  0  0  0  0  0  0  0
   21.6610    5.5600   54.2620 C   0  0  0  0  0  0  0  0  0  0  0  0
   22.7410    6.4430   53.9580 C   0  0  0  0  0  0  0  0  0  0  0  0
   22.4810    7.8030   53.6410 C   0  0  0  0  0  0  0  0  0  0  0  0
   21.1310    8.2850   53.6360 C   0  0  0  0  0  0  0  0  0  0  0  0
   20.0570    7.4010   53.9390 C   0  0  0  0  0  0  0  0  0  0  0  0
   20.7960    9.9340   53.2700 Cl  0  0  0  0  0  0  0  0  0  0  0  0
   10.4780    1.9460   61.4950 C   0  0  0  0  0  0  0  0  0  0  0  0
   10.7070   -1.9870   58.4850 N   0  0  0  0  0  0  0  0  0  0  0  0
  2  1  2  0
  6  1  1  0
  3  2  1  0
 25  2  1  0
  4  3  2  0
  5  4  1  0
  7  4  1  0
  6  5  2  0
 26  6  1  0
  8  7  1  0
  9  8  1  0
 12  8  1  0
 10  9  1  0
 13  9  1  0
 11 10  1  0
 12 11  1  0
 14 13  1  0
 15 14  1  0
 16 15  1  0
 17 16  1  0
 18 17  1  0
 19 18  2  0
 23 18  1  0
 20 19  1  0
 21 20  2  0
 22 21  1  0
 23 22  2  0
 24 22  1  0
A    1
C5
A    2
C4
A    3
C3
A    4
C2
A    5
N1
A    6
C6
A    7
C7
A    8
C4'
A    9
C3'
A   10
C2'
A   11
N1'
A   12
C5'
A   13
N8
A   14
C9
A   15
C10
A   16
N11
A   17
C12
A   18
C26
A   19
C25
A   20
C24
A   21
C23
A   22
C22
A   23
C21
A   24
CL
A   25
C8
A   26
N6
M  END
>  <Id>  (21) 
3B3P_JI7_B_800

>  <ChainId>  (21) 
B

>  <AsymId>  (21) 
K

>  <SeqNum>  (21) 
800

>  <Name>  (21) 
N-{(3R,4S)-4-[(6-amino-4-methylpyridin-2-yl)methyl]pyrrolidin-3-yl}-N'-(3-chlorobenzyl)ethane-1,2-diamine

>  <SystematicName>  (21) 
N-[(3R,4S)-4-[(6-amino-4-methyl-pyridin-2-yl)methyl]pyrrolidin-3-yl]-N'-[(3-chlorophenyl)methyl]ethane-1,2-diamine

>  <Synonyms>  (21) 
(+-)-N1-{trans-4'-[(6"-amino-4"-methylpyridin-2"-yl)methyl]pyrrolidin-3'-yl}-N2-(3'-chlorobenzyl)ethane-1,2-diamine

>  <Type>  (21) 
NON-POLYMER

>  <Formula>  (21) 
C20 H28 Cl N5

>  <ObservedFormula>  (21) 
C20 Cl N5

>  <MolecularWeight>  (21) 
373.923

>  <ModifiedDate>  (21) 
2011-06-04

>  <Parent>  (21) 


>  <OneLetterCode>  (21) 


>  <SubcomponentList>  (21) 


>  <AmbiguousFlag>  (21) 


>  <InsertionCode>  (21) 


>  <InstanceId>  (21) 
3B3P_JI7_B_800

>  <ChemCompId>  (21) 
JI7

>  <PdbId>  (21) 
3B3P

>  <ResidueNumber>  (21) 
800

>  <InChI>  (21) 
InChI=1S/C20H28ClN5/c1-14-7-18(26-20(22)8-14)10-16-12-24-13-19(16)25-6-5-23-11-15-3-2-4-17(21)9-15/h2-4,7-9,16,19,23-25H,5-6,10-13H2,1H3,(H2,22,26)/t16-,19-/m0/s1

>  <InChIKey>  (21) 
VWCMAGONQJHIJZ-LPHOPBHVSA-N

>  <SMILES>  (21) 
Cc1cc(nc(c1)N)C[C@H]2CNC[C@@H]2NCCNCc3cccc(c3)Cl

>  <MissingHeavyAtoms>  (21) 
0

>  <Model>  (21) 
1

>  <AltIds>  (21) 


>  <pKI>  (21) 
4.36

>  <ChemblID>  (21) 
CHEMBL526688

>  <standardized_canonical_smiles>  (21) 
Cc1cc(N)nc(C[C@H]2CNC[C@@H]2NCCNCc2cccc(Cl)c2)c1

$$$$
3N64_XFN_B_800
     RDKit          3D

 27 29  0  0  0  0  0  0  0  0999 V2000
   18.3220    2.9940   54.6020 C   0  0  0  0  0  0  0  0  0  0  0  0
   18.5580    2.7310   55.9650 C   0  0  0  0  0  0  0  0  0  0  0  0
   19.7950    2.8600   56.4750 N   0  0  0  0  0  0  0  0  0  0  0  0
   17.5160    2.3280   56.8010 C   0  0  0  0  0  0  0  0  0  0  0  0
   16.2120    2.1640   56.3060 C   0  0  0  0  0  0  0  0  0  0  0  0
   15.9740    2.4110   54.9390 C   0  0  0  0  0  0  0  0  0  0  0  0
   17.0180    2.8260   54.0900 C   0  0  0  0  0  0  0  0  0  0  0  0
   15.1540    1.6920   57.3060 C   0  0  0  0  0  0  0  0  0  0  0  0
   16.7160    3.0840   52.6200 C   0  0  0  0  0  0  0  0  0  0  0  0
   17.9180    3.7190   51.9090 C   0  0  0  0  0  0  0  0  0  0  0  0
   18.7230    5.0790   48.5390 C   0  0  0  0  0  0  0  0  0  0  0  0
   18.7720    4.7070   49.8480 N   0  0  0  0  0  0  0  0  0  0  0  0
   17.7370    4.0780   50.4540 C   0  0  0  0  0  0  0  0  0  0  0  0
   16.5680    3.7870   49.7310 C   0  0  0  0  0  0  0  0  0  0  0  0
   16.5070    4.1540   48.3940 C   0  0  0  0  0  0  0  0  0  0  0  0
   17.5790    4.8030   47.7910 C   0  0  0  0  0  0  0  0  0  0  0  0
   19.7750    5.7200   47.9550 N   0  0  0  0  0  0  0  0  0  0  0  0
   15.2810    3.8730   47.5580 C   0  0  0  0  0  0  0  0  0  0  0  0
   13.7050    1.9350   56.9160 C   0  0  0  0  0  0  0  0  0  0  0  0
   12.8020    1.2150   57.9070 C   0  0  0  0  0  0  0  0  0  0  0  0
   12.3380    1.9160   59.0190 C   0  0  0  0  0  0  0  0  0  0  0  0
   11.5010    1.2540   59.9320 C   0  0  0  0  0  0  0  0  0  0  0  0
   11.1350   -0.0650   59.7160 C   0  0  0  0  0  0  0  0  0  0  0  0
   11.6200   -0.7360   58.5830 C   0  0  0  0  0  0  0  0  0  0  0  0
   12.4460   -0.1000   57.7260 N   0  0  0  0  0  0  0  0  0  0  0  0
   11.2820   -2.0320   58.3780 N   0  0  0  0  0  0  0  0  0  0  0  0
   10.9820    1.9890   61.1430 C   0  0  0  0  0  0  0  0  0  0  0  0
  2  1  2  0
  7  1  1  0
  3  2  1  0
  4  2  1  0
  5  4  2  0
  6  5  1  0
  8  5  1  0
  7  6  2  0
  9  7  1  0
 19  8  1  0
 10  9  1  0
 13 10  1  0
 12 11  2  0
 16 11  1  0
 17 11  1  0
 13 12  1  0
 14 13  2  0
 15 14  1  0
 16 15  2  0
 18 15  1  0
 20 19  1  0
 21 20  2  0
 25 20  1  0
 22 21  1  0
 23 22  2  0
 27 22  1  0
 24 23  1  0
 25 24  2  0
 26 24  1  0
A    1
C01
A    2
C02
A    3
N02
A    4
C03
A    5
C04
A    6
C05
A    7
C06
A    8
C07
A    9
C08
A   10
C09
A   11
C11
A   12
N12
A   13
C13
A   14
C14
A   15
C15
A   16
C16
A   17
N17
A   18
C18
A   19
C34
A   20
C35
A   21
C36
A   22
C37
A   23
C38
A   24
C39
A   25
N40
A   26
N41
A   27
C42
M  END
>  <Id>  (22) 
3N64_XFN_B_800

>  <ChainId>  (22) 
B

>  <AsymId>  (22) 
M

>  <SeqNum>  (22) 
800

>  <Name>  (22) 
6,6'-[(5-aminobenzene-1,3-diyl)diethane-2,1-diyl]bis(4-methylpyridin-2-amine)

>  <SystematicName>  (22) 
6-[2-[3-azanyl-5-[2-(6-azanyl-4-methyl-pyridin-2-yl)ethyl]phenyl]ethyl]-4-methyl-pyridin-2-amine

>  <Synonyms>  (22) 


>  <Type>  (22) 
NON-POLYMER

>  <Formula>  (22) 
C22 H27 N5

>  <ObservedFormula>  (22) 
C22 N5

>  <MolecularWeight>  (22) 
361.483

>  <ModifiedDate>  (22) 
2011-06-04

>  <Parent>  (22) 


>  <OneLetterCode>  (22) 


>  <SubcomponentList>  (22) 


>  <AmbiguousFlag>  (22) 
N

>  <InsertionCode>  (22) 


>  <InstanceId>  (22) 
3N64_XFN_B_800

>  <ChemCompId>  (22) 
XFN

>  <PdbId>  (22) 
3N64

>  <ResidueNumber>  (22) 
800

>  <InChI>  (22) 
InChI=1S/C22H27N5/c1-14-7-19(26-21(24)9-14)5-3-16-11-17(13-18(23)12-16)4-6-20-8-15(2)10-22(25)27-20/h7-13H,3-6,23H2,1-2H3,(H2,24,26)(H2,25,27)

>  <InChIKey>  (22) 
WZQDEYWNUPXXDO-UHFFFAOYSA-N

>  <SMILES>  (22) 
Cc1cc(nc(c1)N)CCc2cc(cc(c2)N)CCc3cc(cc(n3)N)C

>  <MissingHeavyAtoms>  (22) 
0

>  <Model>  (22) 
1

>  <AltIds>  (22) 


>  <pKI>  (22) 
7.07

>  <ChemblID>  (22) 
CHEMBL1615292

>  <standardized_canonical_smiles>  (22) 
Cc1cc(N)nc(CCc2cc(N)cc(CCc3cc(C)cc(N)n3)c2)c1

$$$$
3N60_XFN_B_800
     RDKit          3D

 27 29  0  0  0  0  0  0  0  0999 V2000
   18.3200    3.0100   54.5760 C   0  0  0  0  0  0  0  0  0  0  0  0
   18.5470    2.8150   55.9590 C   0  0  0  0  0  0  0  0  0  0  0  0
   19.7940    2.9490   56.4750 N   0  0  0  0  0  0  0  0  0  0  0  0
   17.4930    2.4570   56.8180 C   0  0  0  0  0  0  0  0  0  0  0  0
   16.1730    2.2930   56.3500 C   0  0  0  0  0  0  0  0  0  0  0  0
   15.9460    2.4970   54.9780 C   0  0  0  0  0  0  0  0  0  0  0  0
   16.9990    2.8550   54.0950 C   0  0  0  0  0  0  0  0  0  0  0  0
   15.0910    1.8770   57.3470 C   0  0  0  0  0  0  0  0  0  0  0  0
   16.6710    3.0530   52.6120 C   0  0  0  0  0  0  0  0  0  0  0  0
   17.8270    3.8030   51.9150 C   0  0  0  0  0  0  0  0  0  0  0  0
   18.7430    5.0840   48.5250 C   0  0  0  0  0  0  0  0  0  0  0  0
   18.7170    4.7380   49.8380 N   0  0  0  0  0  0  0  0  0  0  0  0
   17.6490    4.1490   50.4380 C   0  0  0  0  0  0  0  0  0  0  0  0
   16.4770    3.8930   49.6920 C   0  0  0  0  0  0  0  0  0  0  0  0
   16.4530    4.2590   48.3470 C   0  0  0  0  0  0  0  0  0  0  0  0
   17.5870    4.8550   47.7580 C   0  0  0  0  0  0  0  0  0  0  0  0
   19.8720    5.6610   47.9960 N   0  0  0  0  0  0  0  0  0  0  0  0
   15.2170    3.9950   47.5020 C   0  0  0  0  0  0  0  0  0  0  0  0
   13.6280    2.0830   56.9500 C   0  0  0  0  0  0  0  0  0  0  0  0
   12.7350    1.3440   57.9300 C   0  0  0  0  0  0  0  0  0  0  0  0
   12.2220    2.0030   59.0580 C   0  0  0  0  0  0  0  0  0  0  0  0
   11.4120    1.3030   59.9660 C   0  0  0  0  0  0  0  0  0  0  0  0
   11.1010   -0.0340   59.7250 C   0  0  0  0  0  0  0  0  0  0  0  0
   11.5900   -0.6450   58.5610 C   0  0  0  0  0  0  0  0  0  0  0  0
   12.4020    0.0390   57.7110 N   0  0  0  0  0  0  0  0  0  0  0  0
   11.2880   -1.9310   58.3210 N   0  0  0  0  0  0  0  0  0  0  0  0
   10.8930    1.9930   61.2140 C   0  0  0  0  0  0  0  0  0  0  0  0
  2  1  2  0
  7  1  1  0
  3  2  1  0
  4  2  1  0
  5  4  2  0
  6  5  1  0
  8  5  1  0
  7  6  2  0
  9  7  1  0
 19  8  1  0
 10  9  1  0
 13 10  1  0
 12 11  2  0
 16 11  1  0
 17 11  1  0
 13 12  1  0
 14 13  2  0
 15 14  1  0
 16 15  2  0
 18 15  1  0
 20 19  1  0
 21 20  2  0
 25 20  1  0
 22 21  1  0
 23 22  2  0
 27 22  1  0
 24 23  1  0
 25 24  2  0
 26 24  1  0
A    1
C01
A    2
C02
A    3
N02
A    4
C03
A    5
C04
A    6
C05
A    7
C06
A    8
C07
A    9
C08
A   10
C09
A   11
C11
A   12
N12
A   13
C13
A   14
C14
A   15
C15
A   16
C16
A   17
N17
A   18
C18
A   19
C34
A   20
C35
A   21
C36
A   22
C37
A   23
C38
A   24
C39
A   25
N40
A   26
N41
A   27
C42
M  END
>  <Id>  (23) 
3N60_XFN_B_800

>  <ChainId>  (23) 
B

>  <AsymId>  (23) 
L

>  <SeqNum>  (23) 
800

>  <Name>  (23) 
6,6'-[(5-aminobenzene-1,3-diyl)diethane-2,1-diyl]bis(4-methylpyridin-2-amine)

>  <SystematicName>  (23) 
6-[2-[3-azanyl-5-[2-(6-azanyl-4-methyl-pyridin-2-yl)ethyl]phenyl]ethyl]-4-methyl-pyridin-2-amine

>  <Synonyms>  (23) 


>  <Type>  (23) 
NON-POLYMER

>  <Formula>  (23) 
C22 H27 N5

>  <ObservedFormula>  (23) 
C22 N5

>  <MolecularWeight>  (23) 
361.483

>  <ModifiedDate>  (23) 
2011-06-04

>  <Parent>  (23) 


>  <OneLetterCode>  (23) 


>  <SubcomponentList>  (23) 


>  <AmbiguousFlag>  (23) 
N

>  <InsertionCode>  (23) 


>  <InstanceId>  (23) 
3N60_XFN_B_800

>  <ChemCompId>  (23) 
XFN

>  <PdbId>  (23) 
3N60

>  <ResidueNumber>  (23) 
800

>  <InChI>  (23) 
InChI=1S/C22H27N5/c1-14-7-19(26-21(24)9-14)5-3-16-11-17(13-18(23)12-16)4-6-20-8-15(2)10-22(25)27-20/h7-13H,3-6,23H2,1-2H3,(H2,24,26)(H2,25,27)

>  <InChIKey>  (23) 
WZQDEYWNUPXXDO-UHFFFAOYSA-N

>  <SMILES>  (23) 
Cc1cc(nc(c1)N)CCc2cc(cc(c2)N)CCc3cc(cc(n3)N)C

>  <MissingHeavyAtoms>  (23) 
0

>  <Model>  (23) 
1

>  <AltIds>  (23) 


>  <pKI>  (23) 
7.07

>  <ChemblID>  (23) 
CHEMBL1615292

>  <standardized_canonical_smiles>  (23) 
Cc1cc(N)nc(CCc2cc(N)cc(CCc3cc(C)cc(N)n3)c2)c1

$$$$
3N63_XFN_B_800
     RDKit          3D

 27 29  0  0  0  0  0  0  0  0999 V2000
   18.4680    2.9960   54.6200 C   0  0  0  0  0  0  0  0  0  0  0  0
   18.7240    2.7760   55.9890 C   0  0  0  0  0  0  0  0  0  0  0  0
   19.9840    2.8660   56.4750 N   0  0  0  0  0  0  0  0  0  0  0  0
   17.6860    2.4580   56.8640 C   0  0  0  0  0  0  0  0  0  0  0  0
   16.3600    2.3580   56.4010 C   0  0  0  0  0  0  0  0  0  0  0  0
   16.1050    2.5790   55.0210 C   0  0  0  0  0  0  0  0  0  0  0  0
   17.1530    2.9020   54.1200 C   0  0  0  0  0  0  0  0  0  0  0  0
   15.3020    1.9760   57.4390 C   0  0  0  0  0  0  0  0  0  0  0  0
   16.8510    3.1340   52.6360 C   0  0  0  0  0  0  0  0  0  0  0  0
   18.0520    3.6760   51.8250 C   0  0  0  0  0  0  0  0  0  0  0  0
   18.6990    5.2560   48.4620 C   0  0  0  0  0  0  0  0  0  0  0  0
   18.8060    4.8130   49.7530 N   0  0  0  0  0  0  0  0  0  0  0  0
   17.8020    4.1130   50.3810 C   0  0  0  0  0  0  0  0  0  0  0  0
   16.6300    3.8250   49.6580 C   0  0  0  0  0  0  0  0  0  0  0  0
   16.5110    4.2850   48.3340 C   0  0  0  0  0  0  0  0  0  0  0  0
   17.5440    4.9960   47.7350 C   0  0  0  0  0  0  0  0  0  0  0  0
   19.7120    5.9430   47.8750 N   0  0  0  0  0  0  0  0  0  0  0  0
   15.2640    4.0160   47.5240 C   0  0  0  0  0  0  0  0  0  0  0  0
   13.8330    2.0860   57.0090 C   0  0  0  0  0  0  0  0  0  0  0  0
   12.8950    1.3220   57.9510 C   0  0  0  0  0  0  0  0  0  0  0  0
   12.3320    2.0020   59.0420 C   0  0  0  0  0  0  0  0  0  0  0  0
   11.4670    1.3380   59.9190 C   0  0  0  0  0  0  0  0  0  0  0  0
   11.1450    0.0100   59.6990 C   0  0  0  0  0  0  0  0  0  0  0  0
   11.6930   -0.6420   58.5880 C   0  0  0  0  0  0  0  0  0  0  0  0
   12.5530    0.0030   57.7460 N   0  0  0  0  0  0  0  0  0  0  0  0
   11.3530   -1.9300   58.4010 N   0  0  0  0  0  0  0  0  0  0  0  0
   10.8920    2.0420   61.1140 C   0  0  0  0  0  0  0  0  0  0  0  0
  2  1  2  0
  7  1  1  0
  3  2  1  0
  4  2  1  0
  5  4  2  0
  6  5  1  0
  8  5  1  0
  7  6  2  0
  9  7  1  0
 19  8  1  0
 10  9  1  0
 13 10  1  0
 12 11  2  0
 16 11  1  0
 17 11  1  0
 13 12  1  0
 14 13  2  0
 15 14  1  0
 16 15  2  0
 18 15  1  0
 20 19  1  0
 21 20  2  0
 25 20  1  0
 22 21  1  0
 23 22  2  0
 27 22  1  0
 24 23  1  0
 25 24  2  0
 26 24  1  0
A    1
C01
A    2
C02
A    3
N02
A    4
C03
A    5
C04
A    6
C05
A    7
C06
A    8
C07
A    9
C08
A   10
C09
A   11
C11
A   12
N12
A   13
C13
A   14
C14
A   15
C15
A   16
C16
A   17
N17
A   18
C18
A   19
C34
A   20
C35
A   21
C36
A   22
C37
A   23
C38
A   24
C39
A   25
N40
A   26
N41
A   27
C42
M  END
>  <Id>  (24) 
3N63_XFN_B_800

>  <ChainId>  (24) 
B

>  <AsymId>  (24) 
L

>  <SeqNum>  (24) 
800

>  <Name>  (24) 
6,6'-[(5-aminobenzene-1,3-diyl)diethane-2,1-diyl]bis(4-methylpyridin-2-amine)

>  <SystematicName>  (24) 
6-[2-[3-azanyl-5-[2-(6-azanyl-4-methyl-pyridin-2-yl)ethyl]phenyl]ethyl]-4-methyl-pyridin-2-amine

>  <Synonyms>  (24) 


>  <Type>  (24) 
NON-POLYMER

>  <Formula>  (24) 
C22 H27 N5

>  <ObservedFormula>  (24) 
C22 N5

>  <MolecularWeight>  (24) 
361.483

>  <ModifiedDate>  (24) 
2011-06-04

>  <Parent>  (24) 


>  <OneLetterCode>  (24) 


>  <SubcomponentList>  (24) 


>  <AmbiguousFlag>  (24) 
N

>  <InsertionCode>  (24) 


>  <InstanceId>  (24) 
3N63_XFN_B_800

>  <ChemCompId>  (24) 
XFN

>  <PdbId>  (24) 
3N63

>  <ResidueNumber>  (24) 
800

>  <InChI>  (24) 
InChI=1S/C22H27N5/c1-14-7-19(26-21(24)9-14)5-3-16-11-17(13-18(23)12-16)4-6-20-8-15(2)10-22(25)27-20/h7-13H,3-6,23H2,1-2H3,(H2,24,26)(H2,25,27)

>  <InChIKey>  (24) 
WZQDEYWNUPXXDO-UHFFFAOYSA-N

>  <SMILES>  (24) 
Cc1cc(nc(c1)N)CCc2cc(cc(c2)N)CCc3cc(cc(n3)N)C

>  <MissingHeavyAtoms>  (24) 
0

>  <Model>  (24) 
1

>  <AltIds>  (24) 


>  <pKI>  (24) 
7.07

>  <ChemblID>  (24) 
CHEMBL1615292

>  <standardized_canonical_smiles>  (24) 
Cc1cc(N)nc(CCc2cc(N)cc(CCc3cc(C)cc(N)n3)c2)c1

$$$$
3N66_XFN_B_800
     RDKit          3D

 27 29  0  0  0  0  0  0  0  0999 V2000
   17.4020    2.3440   56.7900 C   0  0  0  0  0  0  0  0  0  0  0  0
   18.4670    2.6990   55.9540 C   0  0  0  0  0  0  0  0  0  0  0  0
   19.6980    2.7980   56.5030 N   0  0  0  0  0  0  0  0  0  0  0  0
   18.2700    2.9140   54.5780 C   0  0  0  0  0  0  0  0  0  0  0  0
   16.9810    2.7860   54.0370 C   0  0  0  0  0  0  0  0  0  0  0  0
   15.9090    2.4240   54.8800 C   0  0  0  0  0  0  0  0  0  0  0  0
   16.1090    2.2170   56.2700 C   0  0  0  0  0  0  0  0  0  0  0  0
   16.7250    3.0090   52.5450 C   0  0  0  0  0  0  0  0  0  0  0  0
   15.0340    1.7900   57.2830 C   0  0  0  0  0  0  0  0  0  0  0  0
   13.5910    1.9040   56.8310 C   0  0  0  0  0  0  0  0  0  0  0  0
   11.5540   -0.7230   58.5930 C   0  0  0  0  0  0  0  0  0  0  0  0
   12.3570   -0.0820   57.7360 N   0  0  0  0  0  0  0  0  0  0  0  0
   12.7040    1.2470   57.8840 C   0  0  0  0  0  0  0  0  0  0  0  0
   12.2530    1.9460   59.0080 C   0  0  0  0  0  0  0  0  0  0  0  0
   11.4430    1.2670   59.9370 C   0  0  0  0  0  0  0  0  0  0  0  0
   11.0770   -0.0610   59.7340 C   0  0  0  0  0  0  0  0  0  0  0  0
   11.2450   -2.0170   58.3590 N   0  0  0  0  0  0  0  0  0  0  0  0
   10.9370    1.9730   61.1740 C   0  0  0  0  0  0  0  0  0  0  0  0
   17.9110    3.7570   51.8950 C   0  0  0  0  0  0  0  0  0  0  0  0
   17.7250    4.1130   50.4350 C   0  0  0  0  0  0  0  0  0  0  0  0
   16.5690    3.7860   49.7090 C   0  0  0  0  0  0  0  0  0  0  0  0
   16.5070    4.1540   48.3710 C   0  0  0  0  0  0  0  0  0  0  0  0
   17.5790    4.8320   47.7770 C   0  0  0  0  0  0  0  0  0  0  0  0
   18.7210    5.1320   48.5280 C   0  0  0  0  0  0  0  0  0  0  0  0
   18.7520    4.7580   49.8300 N   0  0  0  0  0  0  0  0  0  0  0  0
   19.7840    5.7970   47.9700 N   0  0  0  0  0  0  0  0  0  0  0  0
   15.2850    3.8360   47.5260 C   0  0  0  0  0  0  0  0  0  0  0  0
  2  1  2  0
  7  1  1  0
  3  2  1  0
  4  2  1  0
  5  4  2  0
  6  5  1  0
  8  5  1  0
  7  6  2  0
  9  7  1  0
 19  8  1  0
 10  9  1  0
 13 10  1  0
 12 11  2  0
 16 11  1  0
 17 11  1  0
 13 12  1  0
 14 13  2  0
 15 14  1  0
 16 15  2  0
 18 15  1  0
 20 19  1  0
 21 20  2  0
 25 20  1  0
 22 21  1  0
 23 22  2  0
 27 22  1  0
 24 23  1  0
 25 24  2  0
 26 24  1  0
A    1
C01
A    2
C02
A    3
N02
A    4
C03
A    5
C04
A    6
C05
A    7
C06
A    8
C07
A    9
C08
A   10
C09
A   11
C11
A   12
N12
A   13
C13
A   14
C14
A   15
C15
A   16
C16
A   17
N17
A   18
C18
A   19
C34
A   20
C35
A   21
C36
A   22
C37
A   23
C38
A   24
C39
A   25
N40
A   26
N41
A   27
C42
M  END
>  <Id>  (25) 
3N66_XFN_B_800

>  <ChainId>  (25) 
B

>  <AsymId>  (25) 
L

>  <SeqNum>  (25) 
800

>  <Name>  (25) 
6,6'-[(5-aminobenzene-1,3-diyl)diethane-2,1-diyl]bis(4-methylpyridin-2-amine)

>  <SystematicName>  (25) 
6-[2-[3-azanyl-5-[2-(6-azanyl-4-methyl-pyridin-2-yl)ethyl]phenyl]ethyl]-4-methyl-pyridin-2-amine

>  <Synonyms>  (25) 


>  <Type>  (25) 
NON-POLYMER

>  <Formula>  (25) 
C22 H27 N5

>  <ObservedFormula>  (25) 
C22 N5

>  <MolecularWeight>  (25) 
361.483

>  <ModifiedDate>  (25) 
2011-06-04

>  <Parent>  (25) 


>  <OneLetterCode>  (25) 


>  <SubcomponentList>  (25) 


>  <AmbiguousFlag>  (25) 
N

>  <InsertionCode>  (25) 


>  <InstanceId>  (25) 
3N66_XFN_B_800

>  <ChemCompId>  (25) 
XFN

>  <PdbId>  (25) 
3N66

>  <ResidueNumber>  (25) 
800

>  <InChI>  (25) 
InChI=1S/C22H27N5/c1-14-7-19(26-21(24)9-14)5-3-16-11-17(13-18(23)12-16)4-6-20-8-15(2)10-22(25)27-20/h7-13H,3-6,23H2,1-2H3,(H2,24,26)(H2,25,27)

>  <InChIKey>  (25) 
WZQDEYWNUPXXDO-UHFFFAOYSA-N

>  <SMILES>  (25) 
Cc1cc(nc(c1)N)CCc2cc(cc(c2)N)CCc3cc(cc(n3)N)C

>  <MissingHeavyAtoms>  (25) 
0

>  <Model>  (25) 
1

>  <AltIds>  (25) 


>  <pKI>  (25) 
7.07

>  <ChemblID>  (25) 
CHEMBL1615292

>  <standardized_canonical_smiles>  (25) 
Cc1cc(N)nc(CCc2cc(N)cc(CCc3cc(C)cc(N)n3)c2)c1

$$$$
3N6E_XFN_B_800
     RDKit          3D

 27 29  0  0  0  0  0  0  0  0999 V2000
   -1.5320    2.0700   64.7060 C   0  0  0  0  0  0  0  0  0  0  0  0
   -1.1500    2.4650   65.9760 C   0  0  0  0  0  0  0  0  0  0  0  0
   -0.8030    1.5010   66.8710 N   0  0  0  0  0  0  0  0  0  0  0  0
   -1.1510    3.8340   66.2760 C   0  0  0  0  0  0  0  0  0  0  0  0
   -1.5120    4.7960   65.3140 C   0  0  0  0  0  0  0  0  0  0  0  0
   -1.8950    4.3660   64.0400 C   0  0  0  0  0  0  0  0  0  0  0  0
   -1.8960    2.9980   63.7310 C   0  0  0  0  0  0  0  0  0  0  0  0
   -1.5110    6.2790   65.6650 C   0  0  0  0  0  0  0  0  0  0  0  0
   -2.2980    2.4790   62.3630 C   0  0  0  0  0  0  0  0  0  0  0  0
   -1.1130    1.8540   61.5980 C   0  0  0  0  0  0  0  0  0  0  0  0
    1.4720   -0.7250   62.4330 C   0  0  0  0  0  0  0  0  0  0  0  0
    0.8370    0.3640   61.9310 N   0  0  0  0  0  0  0  0  0  0  0  0
   -0.4690    0.6110   62.2070 C   0  0  0  0  0  0  0  0  0  0  0  0
   -1.1780   -0.2900   63.0240 C   0  0  0  0  0  0  0  0  0  0  0  0
   -0.5470   -1.4140   63.5650 C   0  0  0  0  0  0  0  0  0  0  0  0
    0.7990   -1.6340   63.2600 C   0  0  0  0  0  0  0  0  0  0  0  0
    2.7730   -0.9210   62.1240 N   0  0  0  0  0  0  0  0  0  0  0  0
   -1.3190   -2.3690   64.4510 C   0  0  0  0  0  0  0  0  0  0  0  0
   -0.1160    6.8830   65.5420 C   0  0  0  0  0  0  0  0  0  0  0  0
    0.0840    8.0970   66.4360 C   0  0  0  0  0  0  0  0  0  0  0  0
    0.7520    7.9740   67.6560 C   0  0  0  0  0  0  0  0  0  0  0  0
    0.9340    9.1050   68.4570 C   0  0  0  0  0  0  0  0  0  0  0  0
    0.4530   10.3400   68.0330 C   0  0  0  0  0  0  0  0  0  0  0  0
   -0.2110   10.4230   66.8110 C   0  0  0  0  0  0  0  0  0  0  0  0
   -0.3700    9.3100   66.0510 N   0  0  0  0  0  0  0  0  0  0  0  0
   -0.6800   11.6250   66.3790 N   0  0  0  0  0  0  0  0  0  0  0  0
    1.6340    9.0000   69.7840 C   0  0  0  0  0  0  0  0  0  0  0  0
  2  1  2  0
  7  1  1  0
  3  2  1  0
  4  2  1  0
  5  4  2  0
  6  5  1  0
  8  5  1  0
  7  6  2  0
  9  7  1  0
 19  8  1  0
 10  9  1  0
 13 10  1  0
 12 11  2  0
 16 11  1  0
 17 11  1  0
 13 12  1  0
 14 13  2  0
 15 14  1  0
 16 15  2  0
 18 15  1  0
 20 19  1  0
 21 20  2  0
 25 20  1  0
 22 21  1  0
 23 22  2  0
 27 22  1  0
 24 23  1  0
 25 24  2  0
 26 24  1  0
A    1
C01
A    2
C02
A    3
N02
A    4
C03
A    5
C04
A    6
C05
A    7
C06
A    8
C07
A    9
C08
A   10
C09
A   11
C11
A   12
N12
A   13
C13
A   14
C14
A   15
C15
A   16
C16
A   17
N17
A   18
C18
A   19
C34
A   20
C35
A   21
C36
A   22
C37
A   23
C38
A   24
C39
A   25
N40
A   26
N41
A   27
C42
M  END
>  <Id>  (26) 
3N6E_XFN_B_800

>  <ChainId>  (26) 
B

>  <AsymId>  (26) 
N

>  <SeqNum>  (26) 
800

>  <Name>  (26) 
6,6'-[(5-aminobenzene-1,3-diyl)diethane-2,1-diyl]bis(4-methylpyridin-2-amine)

>  <SystematicName>  (26) 
6-[2-[3-azanyl-5-[2-(6-azanyl-4-methyl-pyridin-2-yl)ethyl]phenyl]ethyl]-4-methyl-pyridin-2-amine

>  <Synonyms>  (26) 


>  <Type>  (26) 
NON-POLYMER

>  <Formula>  (26) 
C22 H27 N5

>  <ObservedFormula>  (26) 
C22 N5

>  <MolecularWeight>  (26) 
361.483

>  <ModifiedDate>  (26) 
2011-06-04

>  <Parent>  (26) 


>  <OneLetterCode>  (26) 


>  <SubcomponentList>  (26) 


>  <AmbiguousFlag>  (26) 
N

>  <InsertionCode>  (26) 


>  <InstanceId>  (26) 
3N6E_XFN_B_800

>  <ChemCompId>  (26) 
XFN

>  <PdbId>  (26) 
3N6E

>  <ResidueNumber>  (26) 
800

>  <InChI>  (26) 
InChI=1S/C22H27N5/c1-14-7-19(26-21(24)9-14)5-3-16-11-17(13-18(23)12-16)4-6-20-8-15(2)10-22(25)27-20/h7-13H,3-6,23H2,1-2H3,(H2,24,26)(H2,25,27)

>  <InChIKey>  (26) 
WZQDEYWNUPXXDO-UHFFFAOYSA-N

>  <SMILES>  (26) 
Cc1cc(nc(c1)N)CCc2cc(cc(c2)N)CCc3cc(cc(n3)N)C

>  <MissingHeavyAtoms>  (26) 
0

>  <Model>  (26) 
1

>  <AltIds>  (26) 


>  <pKI>  (26) 
7.07

>  <ChemblID>  (26) 
CHEMBL1615292

>  <standardized_canonical_smiles>  (26) 
Cc1cc(N)nc(CCc2cc(N)cc(CCc3cc(C)cc(N)n3)c2)c1

$$$$
3N6D_XFN_B_800
     RDKit          3D

 27 29  0  0  0  0  0  0  0  0999 V2000
   -0.1440    1.7070   64.5070 C   0  0  0  0  0  0  0  0  0  0  0  0
   -0.8240    2.4100   65.5040 C   0  0  0  0  0  0  0  0  0  0  0  0
   -1.4100    1.7470   66.5240 N   0  0  0  0  0  0  0  0  0  0  0  0
   -0.9010    3.7940   65.4610 C   0  0  0  0  0  0  0  0  0  0  0  0
   -0.3020    4.5100   64.4220 C   0  0  0  0  0  0  0  0  0  0  0  0
    0.3890    3.7960   63.4020 C   0  0  0  0  0  0  0  0  0  0  0  0
    0.4550    2.3690   63.4300 C   0  0  0  0  0  0  0  0  0  0  0  0
   -0.4220    6.0270   64.5250 C   0  0  0  0  0  0  0  0  0  0  0  0
    1.1960    1.5220   62.3820 C   0  0  0  0  0  0  0  0  0  0  0  0
    0.5110    0.2980   61.7180 C   0  0  0  0  0  0  0  0  0  0  0  0
   -1.2520   -2.3790   63.7280 C   0  0  0  0  0  0  0  0  0  0  0  0
   -0.9370   -1.2670   62.9940 N   0  0  0  0  0  0  0  0  0  0  0  0
    0.3150   -0.9880   62.5260 C   0  0  0  0  0  0  0  0  0  0  0  0
    1.3380   -1.9120   62.7940 C   0  0  0  0  0  0  0  0  0  0  0  0
    1.0490   -3.0730   63.5540 C   0  0  0  0  0  0  0  0  0  0  0  0
   -0.2490   -3.3100   64.0200 C   0  0  0  0  0  0  0  0  0  0  0  0
   -2.5300   -2.5840   64.1670 N   0  0  0  0  0  0  0  0  0  0  0  0
    2.1020   -4.1000   63.8960 C   0  0  0  0  0  0  0  0  0  0  0  0
    0.4590    6.4070   65.7380 C   0  0  0  0  0  0  0  0  0  0  0  0
    0.4920    7.8090   66.3310 C   0  0  0  0  0  0  0  0  0  0  0  0
    0.8210    7.9170   67.6720 C   0  0  0  0  0  0  0  0  0  0  0  0
    0.8920    9.1640   68.2920 C   0  0  0  0  0  0  0  0  0  0  0  0
    0.6440   10.3210   67.5940 C   0  0  0  0  0  0  0  0  0  0  0  0
    0.3340   10.1840   66.2550 C   0  0  0  0  0  0  0  0  0  0  0  0
    0.2710    8.9600   65.6480 N   0  0  0  0  0  0  0  0  0  0  0  0
    0.0990   11.3220   65.5670 N   0  0  0  0  0  0  0  0  0  0  0  0
    1.2400    9.2640   69.7420 C   0  0  0  0  0  0  0  0  0  0  0  0
  2  1  2  0
  7  1  1  0
  3  2  1  0
  4  2  1  0
  5  4  2  0
  6  5  1  0
  8  5  1  0
  7  6  2  0
  9  7  1  0
 19  8  1  0
 10  9  1  0
 13 10  1  0
 12 11  2  0
 16 11  1  0
 17 11  1  0
 13 12  1  0
 14 13  2  0
 15 14  1  0
 16 15  2  0
 18 15  1  0
 20 19  1  0
 21 20  2  0
 25 20  1  0
 22 21  1  0
 23 22  2  0
 27 22  1  0
 24 23  1  0
 25 24  2  0
 26 24  1  0
A    1
C01
A    2
C02
A    3
N02
A    4
C03
A    5
C04
A    6
C05
A    7
C06
A    8
C07
A    9
C08
A   10
C09
A   11
C11
A   12
N12
A   13
C13
A   14
C14
A   15
C15
A   16
C16
A   17
N17
A   18
C18
A   19
C34
A   20
C35
A   21
C36
A   22
C37
A   23
C38
A   24
C39
A   25
N40
A   26
N41
A   27
C42
M  END
>  <Id>  (27) 
3N6D_XFN_B_800

>  <ChainId>  (27) 
B

>  <AsymId>  (27) 
K

>  <SeqNum>  (27) 
800

>  <Name>  (27) 
6,6'-[(5-aminobenzene-1,3-diyl)diethane-2,1-diyl]bis(4-methylpyridin-2-amine)

>  <SystematicName>  (27) 
6-[2-[3-azanyl-5-[2-(6-azanyl-4-methyl-pyridin-2-yl)ethyl]phenyl]ethyl]-4-methyl-pyridin-2-amine

>  <Synonyms>  (27) 


>  <Type>  (27) 
NON-POLYMER

>  <Formula>  (27) 
C22 H27 N5

>  <ObservedFormula>  (27) 
C22 N5

>  <MolecularWeight>  (27) 
361.483

>  <ModifiedDate>  (27) 
2011-06-04

>  <Parent>  (27) 


>  <OneLetterCode>  (27) 


>  <SubcomponentList>  (27) 


>  <AmbiguousFlag>  (27) 
N

>  <InsertionCode>  (27) 


>  <InstanceId>  (27) 
3N6D_XFN_B_800

>  <ChemCompId>  (27) 
XFN

>  <PdbId>  (27) 
3N6D

>  <ResidueNumber>  (27) 
800

>  <InChI>  (27) 
InChI=1S/C22H27N5/c1-14-7-19(26-21(24)9-14)5-3-16-11-17(13-18(23)12-16)4-6-20-8-15(2)10-22(25)27-20/h7-13H,3-6,23H2,1-2H3,(H2,24,26)(H2,25,27)

>  <InChIKey>  (27) 
WZQDEYWNUPXXDO-UHFFFAOYSA-N

>  <SMILES>  (27) 
Cc1cc(nc(c1)N)CCc2cc(cc(c2)N)CCc3cc(cc(n3)N)C

>  <MissingHeavyAtoms>  (27) 
0

>  <Model>  (27) 
1

>  <AltIds>  (27) 


>  <pKI>  (27) 
7.07

>  <ChemblID>  (27) 
CHEMBL1615292

>  <standardized_canonical_smiles>  (27) 
Cc1cc(N)nc(CCc2cc(N)cc(CCc3cc(C)cc(N)n3)c2)c1

$$$$
3N67_XFN_B_800
     RDKit          3D

 27 29  0  0  0  0  0  0  0  0999 V2000
   -1.9310    2.7580   63.0960 C   0  0  0  0  0  0  0  0  0  0  0  0
   -2.9750    3.5560   63.5800 C   0  0  0  0  0  0  0  0  0  0  0  0
   -4.2560    3.3750   63.1530 N   0  0  0  0  0  0  0  0  0  0  0  0
   -2.6950    4.5630   64.5160 C   0  0  0  0  0  0  0  0  0  0  0  0
   -1.4020    4.7960   64.9750 C   0  0  0  0  0  0  0  0  0  0  0  0
   -0.3500    3.9990   64.4860 C   0  0  0  0  0  0  0  0  0  0  0  0
   -0.6140    2.9820   63.5500 C   0  0  0  0  0  0  0  0  0  0  0  0
   -1.1910    5.9140   65.9860 C   0  0  0  0  0  0  0  0  0  0  0  0
    0.5330    2.1410   63.0330 C   0  0  0  0  0  0  0  0  0  0  0  0
    0.1280    1.2070   61.8890 C   0  0  0  0  0  0  0  0  0  0  0  0
    1.3560   -1.7500   63.8610 C   0  0  0  0  0  0  0  0  0  0  0  0
    1.0640   -0.4830   63.4540 N   0  0  0  0  0  0  0  0  0  0  0  0
    0.4230   -0.2290   62.2800 C   0  0  0  0  0  0  0  0  0  0  0  0
    0.0340   -1.2970   61.4580 C   0  0  0  0  0  0  0  0  0  0  0  0
    0.3210   -2.6170   61.8490 C   0  0  0  0  0  0  0  0  0  0  0  0
    0.9900   -2.8400   63.0620 C   0  0  0  0  0  0  0  0  0  0  0  0
    2.0010   -1.9500   65.0400 N   0  0  0  0  0  0  0  0  0  0  0  0
   -0.0840   -3.7980   60.9960 C   0  0  0  0  0  0  0  0  0  0  0  0
   -0.1750    6.9160   65.4660 C   0  0  0  0  0  0  0  0  0  0  0  0
    0.0890    8.0740   66.4220 C   0  0  0  0  0  0  0  0  0  0  0  0
    0.7540    7.9100   67.6350 C   0  0  0  0  0  0  0  0  0  0  0  0
    0.9520    9.0180   68.4600 C   0  0  0  0  0  0  0  0  0  0  0  0
    0.5020   10.2810   68.0610 C   0  0  0  0  0  0  0  0  0  0  0  0
   -0.1630   10.3800   66.8430 C   0  0  0  0  0  0  0  0  0  0  0  0
   -0.3270    9.2930   66.0600 N   0  0  0  0  0  0  0  0  0  0  0  0
   -0.6010   11.5660   66.3800 N   0  0  0  0  0  0  0  0  0  0  0  0
    1.6450    8.8540   69.7730 C   0  0  0  0  0  0  0  0  0  0  0  0
  2  1  2  0
  7  1  1  0
  3  2  1  0
  4  2  1  0
  5  4  2  0
  6  5  1  0
  8  5  1  0
  7  6  2  0
  9  7  1  0
 19  8  1  0
 10  9  1  0
 13 10  1  0
 12 11  2  0
 16 11  1  0
 17 11  1  0
 13 12  1  0
 14 13  2  0
 15 14  1  0
 16 15  2  0
 18 15  1  0
 20 19  1  0
 21 20  2  0
 25 20  1  0
 22 21  1  0
 23 22  2  0
 27 22  1  0
 24 23  1  0
 25 24  2  0
 26 24  1  0
A    1
C01
A    2
C02
A    3
N02
A    4
C03
A    5
C04
A    6
C05
A    7
C06
A    8
C07
A    9
C08
A   10
C09
A   11
C11
A   12
N12
A   13
C13
A   14
C14
A   15
C15
A   16
C16
A   17
N17
A   18
C18
A   19
C34
A   20
C35
A   21
C36
A   22
C37
A   23
C38
A   24
C39
A   25
N40
A   26
N41
A   27
C42
M  END
>  <Id>  (28) 
3N67_XFN_B_800

>  <ChainId>  (28) 
B

>  <AsymId>  (28) 
K

>  <SeqNum>  (28) 
800

>  <Name>  (28) 
6,6'-[(5-aminobenzene-1,3-diyl)diethane-2,1-diyl]bis(4-methylpyridin-2-amine)

>  <SystematicName>  (28) 
6-[2-[3-azanyl-5-[2-(6-azanyl-4-methyl-pyridin-2-yl)ethyl]phenyl]ethyl]-4-methyl-pyridin-2-amine

>  <Synonyms>  (28) 


>  <Type>  (28) 
NON-POLYMER

>  <Formula>  (28) 
C22 H27 N5

>  <ObservedFormula>  (28) 
C22 N5

>  <MolecularWeight>  (28) 
361.483

>  <ModifiedDate>  (28) 
2011-06-04

>  <Parent>  (28) 


>  <OneLetterCode>  (28) 


>  <SubcomponentList>  (28) 


>  <AmbiguousFlag>  (28) 
N

>  <InsertionCode>  (28) 


>  <InstanceId>  (28) 
3N67_XFN_B_800

>  <ChemCompId>  (28) 
XFN

>  <PdbId>  (28) 
3N67

>  <ResidueNumber>  (28) 
800

>  <InChI>  (28) 
InChI=1S/C22H27N5/c1-14-7-19(26-21(24)9-14)5-3-16-11-17(13-18(23)12-16)4-6-20-8-15(2)10-22(25)27-20/h7-13H,3-6,23H2,1-2H3,(H2,24,26)(H2,25,27)

>  <InChIKey>  (28) 
WZQDEYWNUPXXDO-UHFFFAOYSA-N

>  <SMILES>  (28) 
Cc1cc(nc(c1)N)CCc2cc(cc(c2)N)CCc3cc(cc(n3)N)C

>  <MissingHeavyAtoms>  (28) 
0

>  <Model>  (28) 
1

>  <AltIds>  (28) 


>  <pKI>  (28) 
7.07

>  <ChemblID>  (28) 
CHEMBL1615292

>  <standardized_canonical_smiles>  (28) 
Cc1cc(N)nc(CCc2cc(N)cc(CCc3cc(C)cc(N)n3)c2)c1

$$$$
3N5Z_XFM_B_800
     RDKit          3D

 26 28  0  0  0  0  0  0  0  0999 V2000
   12.4000   -0.5530   58.6410 N   0  0  0  0  0  0  0  0  0  0  0  0
   13.0680    0.4440   59.2950 C   0  0  0  0  0  0  0  0  0  0  0  0
   12.4490    1.1490   60.3320 C   0  0  0  0  0  0  0  0  0  0  0  0
   11.1580    0.8270   60.7190 C   0  0  0  0  0  0  0  0  0  0  0  0
   10.4960   -0.2230   60.0600 C   0  0  0  0  0  0  0  0  0  0  0  0
   11.1540   -0.8990   59.0030 C   0  0  0  0  0  0  0  0  0  0  0  0
   14.5020    0.8400   58.9160 C   0  0  0  0  0  0  0  0  0  0  0  0
   14.4740    1.5920   57.6130 C   0  0  0  0  0  0  0  0  0  0  0  0
   14.3890    3.0860   57.8130 C   0  0  0  0  0  0  0  0  0  0  0  0
   15.5260    3.8000   57.6100 N   0  0  0  0  0  0  0  0  0  0  0  0
   15.5660    5.1460   57.7790 C   0  0  0  0  0  0  0  0  0  0  0  0
   14.3940    5.8340   58.1490 C   0  0  0  0  0  0  0  0  0  0  0  0
   13.1920    5.1110   58.3640 C   0  0  0  0  0  0  0  0  0  0  0  0
   13.1890    3.7160   58.1740 C   0  0  0  0  0  0  0  0  0  0  0  0
   16.8820    5.8710   57.5160 C   0  0  0  0  0  0  0  0  0  0  0  0
   17.1230    5.7320   55.9940 C   0  0  0  0  0  0  0  0  0  0  0  0
   18.3300    6.4640   55.4310 C   0  0  0  0  0  0  0  0  0  0  0  0
   18.3940    7.8670   55.3770 C   0  0  0  0  0  0  0  0  0  0  0  0
   19.5320    8.4830   54.8360 C   0  0  0  0  0  0  0  0  0  0  0  0
   20.5650    7.7220   54.3650 N   0  0  0  0  0  0  0  0  0  0  0  0
   20.5230    6.3610   54.4000 C   0  0  0  0  0  0  0  0  0  0  0  0
   19.4060    5.7140   54.9300 C   0  0  0  0  0  0  0  0  0  0  0  0
   21.5600    5.6280   53.9160 N   0  0  0  0  0  0  0  0  0  0  0  0
   19.6250    9.9890   54.7750 C   0  0  0  0  0  0  0  0  0  0  0  0
   10.5480    1.6350   61.8440 C   0  0  0  0  0  0  0  0  0  0  0  0
   10.5750   -1.9180   58.3430 N   0  0  0  0  0  0  0  0  0  0  0  0
  2  1  2  0
  6  1  1  0
  3  2  1  0
  7  2  1  0
  4  3  2  0
  5  4  1  0
 25  4  1  0
  6  5  2  0
 26  6  1  0
  8  7  1  0
  9  8  1  0
 10  9  2  0
 14  9  1  0
 11 10  1  0
 12 11  2  0
 15 11  1  0
 13 12  1  0
 14 13  2  0
 16 15  1  0
 17 16  1  0
 18 17  2  0
 22 17  1  0
 19 18  1  0
 20 19  2  0
 24 19  1  0
 21 20  1  0
 22 21  2  0
 23 21  1  0
A    1
N1
A    2
C2
A    3
C3
A    4
C4
A    5
C5
A    6
C6
A    7
C7
A    8
C8
A    9
C9
A   10
N10
A   11
C11
A   12
C12
A   13
C13
A   14
C14
A   15
C15
A   16
C16
A   17
C17
A   18
C18
A   19
C19
A   20
N20
A   21
C21
A   22
C22
A   23
N23
A   24
C24
A   25
C25
A   26
N26
M  END
>  <Id>  (29) 
3N5Z_XFM_B_800

>  <ChainId>  (29) 
B

>  <AsymId>  (29) 
K

>  <SeqNum>  (29) 
800

>  <Name>  (29) 
6-(2-{6-[2-(2-amino-6-methylpyridin-4-yl)ethyl]pyridin-2-yl}ethyl)-4-methylpyridin-2-amine

>  <SystematicName>  (29) 
6-[2-[6-[2-(2-azanyl-6-methyl-pyridin-4-yl)ethyl]pyridin-2-yl]ethyl]-4-methyl-pyridin-2-amine

>  <Synonyms>  (29) 


>  <Type>  (29) 
NON-POLYMER

>  <Formula>  (29) 
C21 H25 N5

>  <ObservedFormula>  (29) 
C21 N5

>  <MolecularWeight>  (29) 
347.457

>  <ModifiedDate>  (29) 
2011-06-04

>  <Parent>  (29) 


>  <OneLetterCode>  (29) 


>  <SubcomponentList>  (29) 


>  <AmbiguousFlag>  (29) 
N

>  <InsertionCode>  (29) 


>  <InstanceId>  (29) 
3N5Z_XFM_B_800

>  <ChemCompId>  (29) 
XFM

>  <PdbId>  (29) 
3N5Z

>  <ResidueNumber>  (29) 
800

>  <InChI>  (29) 
InChI=1S/C21H25N5/c1-14-10-19(26-20(22)11-14)9-8-18-5-3-4-17(25-18)7-6-16-12-15(2)24-21(23)13-16/h3-5,10-13H,6-9H2,1-2H3,(H2,22,26)(H2,23,24)

>  <InChIKey>  (29) 
ZMKGFXFDYMNDSP-UHFFFAOYSA-N

>  <SMILES>  (29) 
Cc1cc(nc(c1)N)CCc2cccc(n2)CCc3cc(nc(c3)N)C

>  <MissingHeavyAtoms>  (29) 
0

>  <Model>  (29) 
1

>  <AltIds>  (29) 


>  <pKI>  (29) 
6.71

>  <ChemblID>  (29) 
CHEMBL1615291

>  <standardized_canonical_smiles>  (29) 
Cc1cc(N)nc(CCc2cccc(CCc3cc(C)nc(N)c3)n2)c1

$$$$
3N6C_XFM_B_800
     RDKit          3D

 26 28  0  0  0  0  0  0  0  0999 V2000
    0.1520    8.2860   67.1110 N   0  0  0  0  0  0  0  0  0  0  0  0
    0.2880    7.0390   67.6290 C   0  0  0  0  0  0  0  0  0  0  0  0
    1.1080    6.8540   68.7310 C   0  0  0  0  0  0  0  0  0  0  0  0
    1.7870    7.9290   69.2820 C   0  0  0  0  0  0  0  0  0  0  0  0
    1.6350    9.1970   68.7340 C   0  0  0  0  0  0  0  0  0  0  0  0
    0.8000    9.3560   67.6320 C   0  0  0  0  0  0  0  0  0  0  0  0
   -0.4480    5.8460   67.0460 C   0  0  0  0  0  0  0  0  0  0  0  0
    0.1490    5.4030   65.7190 C   0  0  0  0  0  0  0  0  0  0  0  0
    1.2800    4.4470   66.0070 C   0  0  0  0  0  0  0  0  0  0  0  0
    1.0710    3.1080   65.9160 N   0  0  0  0  0  0  0  0  0  0  0  0
    2.0770    2.2190   66.1690 C   0  0  0  0  0  0  0  0  0  0  0  0
    3.3470    2.6720   66.5360 C   0  0  0  0  0  0  0  0  0  0  0  0
    3.5810    4.0420   66.6370 C   0  0  0  0  0  0  0  0  0  0  0  0
    2.5430    4.9330   66.3660 C   0  0  0  0  0  0  0  0  0  0  0  0
    1.8250    0.7300   66.0670 C   0  0  0  0  0  0  0  0  0  0  0  0
    1.6840    0.3190   64.6050 C   0  0  0  0  0  0  0  0  0  0  0  0
    1.5120   -1.1810   64.4940 C   0  0  0  0  0  0  0  0  0  0  0  0
    2.5790   -1.9690   64.0620 C   0  0  0  0  0  0  0  0  0  0  0  0
    2.4150   -3.3510   63.9590 C   0  0  0  0  0  0  0  0  0  0  0  0
    1.2160   -3.9180   64.2740 N   0  0  0  0  0  0  0  0  0  0  0  0
    0.1650   -3.1700   64.6940 C   0  0  0  0  0  0  0  0  0  0  0  0
    0.2940   -1.7870   64.8100 C   0  0  0  0  0  0  0  0  0  0  0  0
   -1.0080   -3.7690   65.0000 N   0  0  0  0  0  0  0  0  0  0  0  0
    3.5630   -4.2060   63.4900 C   0  0  0  0  0  0  0  0  0  0  0  0
    2.6780    7.6950   70.4690 C   0  0  0  0  0  0  0  0  0  0  0  0
    0.6330   10.5820   67.0780 N   0  0  0  0  0  0  0  0  0  0  0  0
  2  1  2  0
  6  1  1  0
  3  2  1  0
  7  2  1  0
  4  3  2  0
  5  4  1  0
 25  4  1  0
  6  5  2  0
 26  6  1  0
  8  7  1  0
  9  8  1  0
 10  9  2  0
 14  9  1  0
 11 10  1  0
 12 11  2  0
 15 11  1  0
 13 12  1  0
 14 13  2  0
 16 15  1  0
 17 16  1  0
 18 17  2  0
 22 17  1  0
 19 18  1  0
 20 19  2  0
 24 19  1  0
 21 20  1  0
 22 21  2  0
 23 21  1  0
A    1
N1
A    2
C2
A    3
C3
A    4
C4
A    5
C5
A    6
C6
A    7
C7
A    8
C8
A    9
C9
A   10
N10
A   11
C11
A   12
C12
A   13
C13
A   14
C14
A   15
C15
A   16
C16
A   17
C17
A   18
C18
A   19
C19
A   20
N20
A   21
C21
A   22
C22
A   23
N23
A   24
C24
A   25
C25
A   26
N26
M  END
>  <Id>  (30) 
3N6C_XFM_B_800

>  <ChainId>  (30) 
B

>  <AsymId>  (30) 
O

>  <SeqNum>  (30) 
800

>  <Name>  (30) 
6-(2-{6-[2-(2-amino-6-methylpyridin-4-yl)ethyl]pyridin-2-yl}ethyl)-4-methylpyridin-2-amine

>  <SystematicName>  (30) 
6-[2-[6-[2-(2-azanyl-6-methyl-pyridin-4-yl)ethyl]pyridin-2-yl]ethyl]-4-methyl-pyridin-2-amine

>  <Synonyms>  (30) 


>  <Type>  (30) 
NON-POLYMER

>  <Formula>  (30) 
C21 H25 N5

>  <ObservedFormula>  (30) 
C21 N5

>  <MolecularWeight>  (30) 
347.457

>  <ModifiedDate>  (30) 
2011-06-04

>  <Parent>  (30) 


>  <OneLetterCode>  (30) 


>  <SubcomponentList>  (30) 


>  <AmbiguousFlag>  (30) 
N

>  <InsertionCode>  (30) 


>  <InstanceId>  (30) 
3N6C_XFM_B_800

>  <ChemCompId>  (30) 
XFM

>  <PdbId>  (30) 
3N6C

>  <ResidueNumber>  (30) 
800

>  <InChI>  (30) 
InChI=1S/C21H25N5/c1-14-10-19(26-20(22)11-14)9-8-18-5-3-4-17(25-18)7-6-16-12-15(2)24-21(23)13-16/h3-5,10-13H,6-9H2,1-2H3,(H2,22,26)(H2,23,24)

>  <InChIKey>  (30) 
ZMKGFXFDYMNDSP-UHFFFAOYSA-N

>  <SMILES>  (30) 
Cc1cc(nc(c1)N)CCc2cccc(n2)CCc3cc(nc(c3)N)C

>  <MissingHeavyAtoms>  (30) 
0

>  <Model>  (30) 
1

>  <AltIds>  (30) 


>  <pKI>  (30) 
6.71

>  <ChemblID>  (30) 
CHEMBL1615291

>  <standardized_canonical_smiles>  (30) 
Cc1cc(N)nc(CCc2cccc(CCc3cc(C)nc(N)c3)n2)c1

$$$$
3N5Y_XFL_B_800
     RDKit          3D

 26 28  0  0  0  0  0  0  0  0999 V2000
   15.5830    3.7470   57.3120 N   0  0  0  0  0  0  0  0  0  0  0  0
   14.4580    3.0120   57.5160 C   0  0  0  0  0  0  0  0  0  0  0  0
   13.2370    3.6250   57.8140 C   0  0  0  0  0  0  0  0  0  0  0  0
   13.2040    5.0220   57.9250 C   0  0  0  0  0  0  0  0  0  0  0  0
   14.3840    5.7580   57.7060 C   0  0  0  0  0  0  0  0  0  0  0  0
   15.5790    5.0960   57.3980 C   0  0  0  0  0  0  0  0  0  0  0  0
   12.4010   -0.5480   58.4530 N   0  0  0  0  0  0  0  0  0  0  0  0
   11.1670   -0.9270   58.8200 C   0  0  0  0  0  0  0  0  0  0  0  0
   10.6450   -1.9580   58.1420 N   0  0  0  0  0  0  0  0  0  0  0  0
   10.4760   -0.2650   59.8610 C   0  0  0  0  0  0  0  0  0  0  0  0
   11.1100    0.7940   60.5220 C   0  0  0  0  0  0  0  0  0  0  0  0
   12.4000    1.1430   60.1390 C   0  0  0  0  0  0  0  0  0  0  0  0
   13.0460    0.4680   59.0940 C   0  0  0  0  0  0  0  0  0  0  0  0
   10.4700    1.5950   61.6300 C   0  0  0  0  0  0  0  0  0  0  0  0
   14.4790    0.8520   58.7170 C   0  0  0  0  0  0  0  0  0  0  0  0
   14.5690    1.5190   57.3790 C   0  0  0  0  0  0  0  0  0  0  0  0
   19.3940    5.8120   54.5280 N   0  0  0  0  0  0  0  0  0  0  0  0
   20.4690    6.4680   54.0200 C   0  0  0  0  0  0  0  0  0  0  0  0
   21.4890    5.7720   53.4660 N   0  0  0  0  0  0  0  0  0  0  0  0
   20.5240    7.8590   54.0620 C   0  0  0  0  0  0  0  0  0  0  0  0
   19.4630    8.5570   54.6350 C   0  0  0  0  0  0  0  0  0  0  0  0
   18.3660    7.8650   55.1540 C   0  0  0  0  0  0  0  0  0  0  0  0
   18.3480    6.4690   55.1010 C   0  0  0  0  0  0  0  0  0  0  0  0
   19.5130   10.0580   54.6910 C   0  0  0  0  0  0  0  0  0  0  0  0
   17.1730    5.6630   55.6380 C   0  0  0  0  0  0  0  0  0  0  0  0
   16.8660    5.8590   57.1350 C   0  0  0  0  0  0  0  0  0  0  0  0
  2  1  2  0
  6  1  1  0
  3  2  1  0
 16  2  1  0
  4  3  2  0
  5  4  1  0
  6  5  2  0
 26  6  1  0
  8  7  2  0
 13  7  1  0
  9  8  1  0
 10  8  1  0
 11 10  2  0
 12 11  1  0
 14 11  1  0
 13 12  2  0
 15 13  1  0
 16 15  1  0
 18 17  2  0
 23 17  1  0
 19 18  1  0
 20 18  1  0
 21 20  2  0
 22 21  1  0
 24 21  1  0
 23 22  2  0
 25 23  1  0
 26 25  1  0
A    1
N1
A    2
C2
A    3
C3
A    4
C4
A    5
C5
A    6
C6
A    7
N11
A    8
C12
A    9
N12
A   10
C13
A   11
C14
A   12
C15
A   13
C16
A   14
C17
A   15
C18
A   16
C19
A   17
N21
A   18
C22
A   19
N22
A   20
C23
A   21
C24
A   22
C25
A   23
C26
A   24
C27
A   25
C28
A   26
C29
M  END
>  <Id>  (31) 
3N5Y_XFL_B_800

>  <ChainId>  (31) 
B

>  <AsymId>  (31) 
J

>  <SeqNum>  (31) 
800

>  <Name>  (31) 
6,6'-(pyridine-2,6-diyldiethane-2,1-diyl)bis(4-methylpyridin-2-amine)

>  <SystematicName>  (31) 
6-[2-[6-[2-(6-azanyl-4-methyl-pyridin-2-yl)ethyl]pyridin-2-yl]ethyl]-4-methyl-pyridin-2-amine

>  <Synonyms>  (31) 


>  <Type>  (31) 
NON-POLYMER

>  <Formula>  (31) 
C21 H25 N5

>  <ObservedFormula>  (31) 
C21 N5

>  <MolecularWeight>  (31) 
347.457

>  <ModifiedDate>  (31) 
2011-06-04

>  <Parent>  (31) 


>  <OneLetterCode>  (31) 


>  <SubcomponentList>  (31) 


>  <AmbiguousFlag>  (31) 
N

>  <InsertionCode>  (31) 


>  <InstanceId>  (31) 
3N5Y_XFL_B_800

>  <ChemCompId>  (31) 
XFL

>  <PdbId>  (31) 
3N5Y

>  <ResidueNumber>  (31) 
800

>  <InChI>  (31) 
InChI=1S/C21H25N5/c1-14-10-18(25-20(22)12-14)8-6-16-4-3-5-17(24-16)7-9-19-11-15(2)13-21(23)26-19/h3-5,10-13H,6-9H2,1-2H3,(H2,22,25)(H2,23,26)

>  <InChIKey>  (31) 
NHAXZADCONDMKK-UHFFFAOYSA-N

>  <SMILES>  (31) 
Cc1cc(nc(c1)N)CCc2cccc(n2)CCc3cc(cc(n3)N)C

>  <MissingHeavyAtoms>  (31) 
0

>  <Model>  (31) 
1

>  <AltIds>  (31) 


>  <pKI>  (31) 
7.0

>  <ChemblID>  (31) 
CHEMBL1615290

>  <standardized_canonical_smiles>  (31) 
Cc1cc(N)nc(CCc2cccc(CCc3cc(C)cc(N)n3)n2)c1

$$$$
3N6G_XFK_B_800
     RDKit          3D

 26 28  0  0  0  0  0  0  0  0999 V2000
   -0.4800    9.3650   66.1320 N   0  0  0  0  0  0  0  0  0  0  0  0
   -0.2170   10.4050   66.9140 C   0  0  0  0  0  0  0  0  0  0  0  0
   -0.6450   11.6090   66.4740 N   0  0  0  0  0  0  0  0  0  0  0  0
    0.5000   10.2360   68.1100 C   0  0  0  0  0  0  0  0  0  0  0  0
    0.9010    8.9460   68.4570 C   0  0  0  0  0  0  0  0  0  0  0  0
    0.5900    7.8780   67.6230 C   0  0  0  0  0  0  0  0  0  0  0  0
   -0.1280    8.1190   66.4510 C   0  0  0  0  0  0  0  0  0  0  0  0
    1.6420    8.7070   69.7360 C   0  0  0  0  0  0  0  0  0  0  0  0
   -0.5190    7.0500   65.4560 C   0  0  0  0  0  0  0  0  0  0  0  0
   -1.2090    5.8670   66.0780 C   0  0  0  0  0  0  0  0  0  0  0  0
   -3.2430    3.7510   63.7480 N   0  0  0  0  0  0  0  0  0  0  0  0
   -2.8670    4.6710   64.6510 C   0  0  0  0  0  0  0  0  0  0  0  0
   -1.5360    4.8240   65.0380 C   0  0  0  0  0  0  0  0  0  0  0  0
   -0.5720    3.9930   64.4750 C   0  0  0  0  0  0  0  0  0  0  0  0
   -1.0030    3.0570   63.5270 C   0  0  0  0  0  0  0  0  0  0  0  0
   -2.3510    2.9440   63.1700 C   0  0  0  0  0  0  0  0  0  0  0  0
   -0.0220    2.1340   62.8680 C   0  0  0  0  0  0  0  0  0  0  0  0
   -0.3920    0.7750   63.4130 C   0  0  0  0  0  0  0  0  0  0  0  0
    1.8830    0.0690   62.8360 C   0  0  0  0  0  0  0  0  0  0  0  0
    2.7480   -0.8190   62.2570 C   0  0  0  0  0  0  0  0  0  0  0  0
    4.0490   -0.5240   62.3290 N   0  0  0  0  0  0  0  0  0  0  0  0
    2.2990   -1.9370   61.6330 N   0  0  0  0  0  0  0  0  0  0  0  0
    0.9710   -2.2090   61.5540 C   0  0  0  0  0  0  0  0  0  0  0  0
    0.0580   -1.3350   62.1300 C   0  0  0  0  0  0  0  0  0  0  0  0
    0.5350   -0.2000   62.7740 C   0  0  0  0  0  0  0  0  0  0  0  0
    0.4820   -3.4550   60.8610 C   0  0  0  0  0  0  0  0  0  0  0  0
  2  1  2  0
  7  1  1  0
  3  2  1  0
  4  2  1  0
  5  4  2  0
  6  5  1  0
  8  5  1  0
  7  6  2  0
  9  7  1  0
 10  9  1  0
 13 10  1  0
 12 11  2  0
 16 11  1  0
 13 12  1  0
 14 13  2  0
 15 14  1  0
 16 15  2  0
 17 15  1  0
 18 17  1  0
 25 18  1  0
 20 19  2  0
 25 19  1  0
 21 20  1  0
 22 20  1  0
 23 22  2  0
 24 23  1  0
 26 23  1  0
 25 24  2  0
A    1
N01
A    2
C02
A    3
N02
A    4
C03
A    5
C04
A    6
C05
A    7
C06
A    8
C07
A    9
C08
A   10
C09
A   11
N11
A   12
C12
A   13
C13
A   14
C14
A   15
C15
A   16
C16
A   17
C17
A   18
C18
A   19
C21
A   20
C22
A   21
N22
A   22
N23
A   23
C24
A   24
C25
A   25
C26
A   26
C27
M  END
>  <Id>  (32) 
3N6G_XFK_B_800

>  <ChainId>  (32) 
B

>  <AsymId>  (32) 
M

>  <SeqNum>  (32) 
800

>  <Name>  (32) 
6-(2-{5-[2-(2-amino-6-methylpyridin-4-yl)ethyl]pyridin-3-yl}ethyl)-4-methylpyridin-2-amine

>  <SystematicName>  (32) 
6-[2-[5-[2-(2-azanyl-6-methyl-pyridin-4-yl)ethyl]pyridin-3-yl]ethyl]-4-methyl-pyridin-2-amine

>  <Synonyms>  (32) 


>  <Type>  (32) 
NON-POLYMER

>  <Formula>  (32) 
C21 H25 N5

>  <ObservedFormula>  (32) 
C21 N5

>  <MolecularWeight>  (32) 
347.457

>  <ModifiedDate>  (32) 
2011-06-04

>  <Parent>  (32) 


>  <OneLetterCode>  (32) 


>  <SubcomponentList>  (32) 


>  <AmbiguousFlag>  (32) 
N

>  <InsertionCode>  (32) 


>  <InstanceId>  (32) 
3N6G_XFK_B_800

>  <ChemCompId>  (32) 
XFK

>  <PdbId>  (32) 
3N6G

>  <ResidueNumber>  (32) 
800

>  <InChI>  (32) 
InChI=1S/C21H25N5/c1-14-7-19(26-20(22)8-14)6-5-18-10-17(12-24-13-18)4-3-16-9-15(2)25-21(23)11-16/h7-13H,3-6H2,1-2H3,(H2,22,26)(H2,23,25)

>  <InChIKey>  (32) 
RDXKSGCNYFTVRW-UHFFFAOYSA-N

>  <SMILES>  (32) 
Cc1cc(nc(c1)N)CCc2cc(cnc2)CCc3cc(nc(c3)N)C

>  <MissingHeavyAtoms>  (32) 
0

>  <Model>  (32) 
1

>  <AltIds>  (32) 


>  <pKI>  (32) 
6.99

>  <ChemblID>  (32) 
CHEMBL1615289

>  <standardized_canonical_smiles>  (32) 
Cc1cc(N)nc(CCc2cncc(CCc3cc(C)nc(N)c3)c2)c1

$$$$
3N5X_XFK_B_805
     RDKit          3D

 26 28  0  0  0  0  0  0  0  0999 V2000
   15.0270    3.0930   49.4530 N   0  0  0  0  0  0  0  0  0  0  0  0
   14.6710    2.8560   48.1600 C   0  0  0  0  0  0  0  0  0  0  0  0
   13.7460    1.9050   47.8520 N   0  0  0  0  0  0  0  0  0  0  0  0
   15.2620    3.6040   47.1440 C   0  0  0  0  0  0  0  0  0  0  0  0
   16.2210    4.5600   47.4230 C   0  0  0  0  0  0  0  0  0  0  0  0
   16.5750    4.7930   48.7490 C   0  0  0  0  0  0  0  0  0  0  0  0
   15.9730    4.0380   49.7480 C   0  0  0  0  0  0  0  0  0  0  0  0
   16.8730    5.3710   46.3250 C   0  0  0  0  0  0  0  0  0  0  0  0
   16.3530    4.3320   51.1900 C   0  0  0  0  0  0  0  0  0  0  0  0
   17.1860    3.2730   51.8790 C   0  0  0  0  0  0  0  0  0  0  0  0
   20.3480    2.1020   50.1840 N   0  0  0  0  0  0  0  0  0  0  0  0
   19.0870    2.1880   50.6310 C   0  0  0  0  0  0  0  0  0  0  0  0
   18.6310    3.2660   51.3870 C   0  0  0  0  0  0  0  0  0  0  0  0
   19.5330    4.2830   51.7120 C   0  0  0  0  0  0  0  0  0  0  0  0
   20.8530    4.1800   51.2540 C   0  0  0  0  0  0  0  0  0  0  0  0
   21.2350    3.0760   50.4840 C   0  0  0  0  0  0  0  0  0  0  0  0
   21.8660    5.2630   51.5820 C   0  0  0  0  0  0  0  0  0  0  0  0
   22.5680    4.9100   52.8970 C   0  0  0  0  0  0  0  0  0  0  0  0
   24.8250    5.9350   52.3740 C   0  0  0  0  0  0  0  0  0  0  0  0
   25.8250    6.8610   52.6660 C   0  0  0  0  0  0  0  0  0  0  0  0
   26.9450    6.9050   51.9000 N   0  0  0  0  0  0  0  0  0  0  0  0
   25.6810    7.7290   53.7040 N   0  0  0  0  0  0  0  0  0  0  0  0
   24.5700    7.7180   54.4940 C   0  0  0  0  0  0  0  0  0  0  0  0
   23.5410    6.8060   54.2380 C   0  0  0  0  0  0  0  0  0  0  0  0
   23.6760    5.9050   53.1770 C   0  0  0  0  0  0  0  0  0  0  0  0
   24.4280    8.6910   55.6460 C   0  0  0  0  0  0  0  0  0  0  0  0
  2  1  2  0
  7  1  1  0
  3  2  1  0
  4  2  1  0
  5  4  2  0
  6  5  1  0
  8  5  1  0
  7  6  2  0
  9  7  1  0
 10  9  1  0
 13 10  1  0
 12 11  2  0
 16 11  1  0
 13 12  1  0
 14 13  2  0
 15 14  1  0
 16 15  2  0
 17 15  1  0
 18 17  1  0
 25 18  1  0
 20 19  2  0
 25 19  1  0
 21 20  1  0
 22 20  1  0
 23 22  2  0
 24 23  1  0
 26 23  1  0
 25 24  2  0
A    1
N01
A    2
C02
A    3
N02
A    4
C03
A    5
C04
A    6
C05
A    7
C06
A    8
C07
A    9
C08
A   10
C09
A   11
N11
A   12
C12
A   13
C13
A   14
C14
A   15
C15
A   16
C16
A   17
C17
A   18
C18
A   19
C21
A   20
C22
A   21
N22
A   22
N23
A   23
C24
A   24
C25
A   25
C26
A   26
C27
M  END
>  <Id>  (33) 
3N5X_XFK_B_805

>  <ChainId>  (33) 
B

>  <AsymId>  (33) 
M

>  <SeqNum>  (33) 
805

>  <Name>  (33) 
6-(2-{5-[2-(2-amino-6-methylpyridin-4-yl)ethyl]pyridin-3-yl}ethyl)-4-methylpyridin-2-amine

>  <SystematicName>  (33) 
6-[2-[5-[2-(2-azanyl-6-methyl-pyridin-4-yl)ethyl]pyridin-3-yl]ethyl]-4-methyl-pyridin-2-amine

>  <Synonyms>  (33) 


>  <Type>  (33) 
NON-POLYMER

>  <Formula>  (33) 
C21 H25 N5

>  <ObservedFormula>  (33) 
C21 N5

>  <MolecularWeight>  (33) 
347.457

>  <ModifiedDate>  (33) 
2011-06-04

>  <Parent>  (33) 


>  <OneLetterCode>  (33) 


>  <SubcomponentList>  (33) 


>  <AmbiguousFlag>  (33) 
N

>  <InsertionCode>  (33) 


>  <InstanceId>  (33) 
3N5X_XFK_B_805

>  <ChemCompId>  (33) 
XFK

>  <PdbId>  (33) 
3N5X

>  <ResidueNumber>  (33) 
805

>  <InChI>  (33) 
InChI=1S/C21H25N5/c1-14-7-19(26-20(22)8-14)6-5-18-10-17(12-24-13-18)4-3-16-9-15(2)25-21(23)11-16/h7-13H,3-6H2,1-2H3,(H2,22,26)(H2,23,25)

>  <InChIKey>  (33) 
RDXKSGCNYFTVRW-UHFFFAOYSA-N

>  <SMILES>  (33) 
Cc1cc(nc(c1)N)CCc2cc(cnc2)CCc3cc(nc(c3)N)C

>  <MissingHeavyAtoms>  (33) 
0

>  <Model>  (33) 
1

>  <AltIds>  (33) 


>  <pKI>  (33) 
6.99

>  <ChemblID>  (33) 
CHEMBL1615289

>  <standardized_canonical_smiles>  (33) 
Cc1cc(N)nc(CCc2cncc(CCc3cc(C)nc(N)c3)c2)c1

$$$$
3N6A_XFK_B_800
     RDKit          3D

 26 28  0  0  0  0  0  0  0  0999 V2000
   -0.3670    9.3410   66.0010 N   0  0  0  0  0  0  0  0  0  0  0  0
   -0.1840   10.3860   66.8300 C   0  0  0  0  0  0  0  0  0  0  0  0
   -0.6770   11.5940   66.4690 N   0  0  0  0  0  0  0  0  0  0  0  0
    0.5130   10.2210   68.0220 C   0  0  0  0  0  0  0  0  0  0  0  0
    1.0080    8.9660   68.3570 C   0  0  0  0  0  0  0  0  0  0  0  0
    0.8040    7.9090   67.4840 C   0  0  0  0  0  0  0  0  0  0  0  0
    0.1060    8.1260   66.2960 C   0  0  0  0  0  0  0  0  0  0  0  0
    1.7530    8.7620   69.6480 C   0  0  0  0  0  0  0  0  0  0  0  0
   -0.1470    7.0270   65.3080 C   0  0  0  0  0  0  0  0  0  0  0  0
   -0.7680    5.8570   66.0350 C   0  0  0  0  0  0  0  0  0  0  0  0
   -2.8770    3.7260   63.8110 N   0  0  0  0  0  0  0  0  0  0  0  0
   -2.4720    4.6820   64.6640 C   0  0  0  0  0  0  0  0  0  0  0  0
   -1.1420    4.7730   65.0670 C   0  0  0  0  0  0  0  0  0  0  0  0
   -0.2040    3.8600   64.5900 C   0  0  0  0  0  0  0  0  0  0  0  0
   -0.6530    2.8870   63.6990 C   0  0  0  0  0  0  0  0  0  0  0  0
   -1.9990    2.8400   63.3260 C   0  0  0  0  0  0  0  0  0  0  0  0
    0.2880    1.8660   63.1210 C   0  0  0  0  0  0  0  0  0  0  0  0
   -0.4970    0.5730   63.1160 C   0  0  0  0  0  0  0  0  0  0  0  0
    0.6990   -1.4840   63.8860 C   0  0  0  0  0  0  0  0  0  0  0  0
    1.5330   -2.5780   63.6320 C   0  0  0  0  0  0  0  0  0  0  0  0
    1.8370   -3.4650   64.6250 N   0  0  0  0  0  0  0  0  0  0  0  0
    2.0350   -2.7480   62.3790 N   0  0  0  0  0  0  0  0  0  0  0  0
    1.7450   -1.8810   61.3750 C   0  0  0  0  0  0  0  0  0  0  0  0
    0.9230   -0.7800   61.5800 C   0  0  0  0  0  0  0  0  0  0  0  0
    0.4050   -0.5920   62.8520 C   0  0  0  0  0  0  0  0  0  0  0  0
    2.3190   -2.1190   60.0080 C   0  0  0  0  0  0  0  0  0  0  0  0
  2  1  2  0
  7  1  1  0
  3  2  1  0
  4  2  1  0
  5  4  2  0
  6  5  1  0
  8  5  1  0
  7  6  2  0
  9  7  1  0
 10  9  1  0
 13 10  1  0
 12 11  2  0
 16 11  1  0
 13 12  1  0
 14 13  2  0
 15 14  1  0
 16 15  2  0
 17 15  1  0
 18 17  1  0
 25 18  1  0
 20 19  2  0
 25 19  1  0
 21 20  1  0
 22 20  1  0
 23 22  2  0
 24 23  1  0
 26 23  1  0
 25 24  2  0
A    1
N01
A    2
C02
A    3
N02
A    4
C03
A    5
C04
A    6
C05
A    7
C06
A    8
C07
A    9
C08
A   10
C09
A   11
N11
A   12
C12
A   13
C13
A   14
C14
A   15
C15
A   16
C16
A   17
C17
A   18
C18
A   19
C21
A   20
C22
A   21
N22
A   22
N23
A   23
C24
A   24
C25
A   25
C26
A   26
C27
M  END
>  <Id>  (34) 
3N6A_XFK_B_800

>  <ChainId>  (34) 
B

>  <AsymId>  (34) 
L

>  <SeqNum>  (34) 
800

>  <Name>  (34) 
6-(2-{5-[2-(2-amino-6-methylpyridin-4-yl)ethyl]pyridin-3-yl}ethyl)-4-methylpyridin-2-amine

>  <SystematicName>  (34) 
6-[2-[5-[2-(2-azanyl-6-methyl-pyridin-4-yl)ethyl]pyridin-3-yl]ethyl]-4-methyl-pyridin-2-amine

>  <Synonyms>  (34) 


>  <Type>  (34) 
NON-POLYMER

>  <Formula>  (34) 
C21 H25 N5

>  <ObservedFormula>  (34) 
C21 N5

>  <MolecularWeight>  (34) 
347.457

>  <ModifiedDate>  (34) 
2011-06-04

>  <Parent>  (34) 


>  <OneLetterCode>  (34) 


>  <SubcomponentList>  (34) 


>  <AmbiguousFlag>  (34) 
N

>  <InsertionCode>  (34) 


>  <InstanceId>  (34) 
3N6A_XFK_B_800

>  <ChemCompId>  (34) 
XFK

>  <PdbId>  (34) 
3N6A

>  <ResidueNumber>  (34) 
800

>  <InChI>  (34) 
InChI=1S/C21H25N5/c1-14-7-19(26-20(22)8-14)6-5-18-10-17(12-24-13-18)4-3-16-9-15(2)25-21(23)11-16/h7-13H,3-6H2,1-2H3,(H2,22,26)(H2,23,25)

>  <InChIKey>  (34) 
RDXKSGCNYFTVRW-UHFFFAOYSA-N

>  <SMILES>  (34) 
Cc1cc(nc(c1)N)CCc2cc(cnc2)CCc3cc(nc(c3)N)C

>  <MissingHeavyAtoms>  (34) 
0

>  <Model>  (34) 
1

>  <AltIds>  (34) 


>  <pKI>  (34) 
6.99

>  <ChemblID>  (34) 
CHEMBL1615289

>  <standardized_canonical_smiles>  (34) 
Cc1cc(N)nc(CCc2cncc(CCc3cc(C)nc(N)c3)c2)c1

$$$$
3N65_XFJ_B_719
     RDKit          3D

 26 28  0  0  0  0  0  0  0  0999 V2000
   15.1810    3.2900   49.2360 N   0  0  0  0  0  0  0  0  0  0  0  0
   14.7870    3.0740   47.9520 C   0  0  0  0  0  0  0  0  0  0  0  0
   13.8210    2.1620   47.6790 N   0  0  0  0  0  0  0  0  0  0  0  0
   15.3790    3.8060   46.9210 C   0  0  0  0  0  0  0  0  0  0  0  0
   16.3800    4.7360   47.2040 C   0  0  0  0  0  0  0  0  0  0  0  0
   16.7640    4.9320   48.5240 C   0  0  0  0  0  0  0  0  0  0  0  0
   16.1420    4.2000   49.5230 C   0  0  0  0  0  0  0  0  0  0  0  0
   17.0570    5.5430   46.1220 C   0  0  0  0  0  0  0  0  0  0  0  0
   16.5810    4.4450   50.9490 C   0  0  0  0  0  0  0  0  0  0  0  0
   17.2800    3.2330   51.5260 C   0  0  0  0  0  0  0  0  0  0  0  0
   20.4200    1.9820   49.8560 N   0  0  0  0  0  0  0  0  0  0  0  0
   19.1550    2.0690   50.2890 C   0  0  0  0  0  0  0  0  0  0  0  0
   18.7100    3.1620   51.0300 C   0  0  0  0  0  0  0  0  0  0  0  0
   19.6040    4.1730   51.3570 C   0  0  0  0  0  0  0  0  0  0  0  0
   20.9140    4.0710   50.9110 C   0  0  0  0  0  0  0  0  0  0  0  0
   21.3090    2.9570   50.1640 C   0  0  0  0  0  0  0  0  0  0  0  0
   21.8870    5.1690   51.2700 C   0  0  0  0  0  0  0  0  0  0  0  0
   22.5610    4.7970   52.5850 C   0  0  0  0  0  0  0  0  0  0  0  0
   24.7880    5.7990   52.1200 N   0  0  0  0  0  0  0  0  0  0  0  0
   25.7940    6.6740   52.3700 C   0  0  0  0  0  0  0  0  0  0  0  0
   26.9060    6.6590   51.5910 N   0  0  0  0  0  0  0  0  0  0  0  0
   25.6880    7.5910   53.4180 C   0  0  0  0  0  0  0  0  0  0  0  0
   24.5390    7.6050   54.2130 C   0  0  0  0  0  0  0  0  0  0  0  0
   23.5100    6.6970   53.9470 C   0  0  0  0  0  0  0  0  0  0  0  0
   23.6600    5.7920   52.8890 C   0  0  0  0  0  0  0  0  0  0  0  0
   24.4150    8.6030   55.3370 C   0  0  0  0  0  0  0  0  0  0  0  0
  2  1  2  0
  7  1  1  0
  3  2  1  0
  4  2  1  0
  5  4  2  0
  6  5  1  0
  8  5  1  0
  7  6  2  0
  9  7  1  0
 10  9  1  0
 13 10  1  0
 12 11  2  0
 16 11  1  0
 13 12  1  0
 14 13  2  0
 15 14  1  0
 16 15  2  0
 17 15  1  0
 18 17  1  0
 25 18  1  0
 20 19  2  0
 25 19  1  0
 21 20  1  0
 22 20  1  0
 23 22  2  0
 24 23  1  0
 26 23  1  0
 25 24  2  0
A    1
N01
A    2
C02
A    3
N02
A    4
C03
A    5
C04
A    6
C05
A    7
C06
A    8
C07
A    9
C08
A   10
C09
A   11
N11
A   12
C12
A   13
C13
A   14
C14
A   15
C15
A   16
C16
A   17
C17
A   18
C18
A   19
N21
A   20
C22
A   21
N22
A   22
C23
A   23
C24
A   24
C25
A   25
C26
A   26
C27
M  END
>  <Id>  (35) 
3N65_XFJ_B_719

>  <ChainId>  (35) 
B

>  <AsymId>  (35) 
Q

>  <SeqNum>  (35) 
719

>  <Name>  (35) 
6,6'-(pyridine-3,5-diyldiethane-2,1-diyl)bis(4-methylpyridin-2-amine)

>  <SystematicName>  (35) 
6-[2-[5-[2-(6-azanyl-4-methyl-pyridin-2-yl)ethyl]pyridin-3-yl]ethyl]-4-methyl-pyridin-2-amine

>  <Synonyms>  (35) 


>  <Type>  (35) 
NON-POLYMER

>  <Formula>  (35) 
C21 H25 N5

>  <ObservedFormula>  (35) 
C21 N5

>  <MolecularWeight>  (35) 
347.457

>  <ModifiedDate>  (35) 
2011-06-04

>  <Parent>  (35) 


>  <OneLetterCode>  (35) 


>  <SubcomponentList>  (35) 


>  <AmbiguousFlag>  (35) 
N

>  <InsertionCode>  (35) 


>  <InstanceId>  (35) 
3N65_XFJ_B_719

>  <ChemCompId>  (35) 
XFJ

>  <PdbId>  (35) 
3N65

>  <ResidueNumber>  (35) 
719

>  <InChI>  (35) 
InChI=1S/C21H25N5/c1-14-7-18(25-20(22)9-14)5-3-16-11-17(13-24-12-16)4-6-19-8-15(2)10-21(23)26-19/h7-13H,3-6H2,1-2H3,(H2,22,25)(H2,23,26)

>  <InChIKey>  (35) 
KZHFSPGMRFCRCE-UHFFFAOYSA-N

>  <SMILES>  (35) 
Cc1cc(nc(c1)N)CCc2cc(cnc2)CCc3cc(cc(n3)N)C

>  <MissingHeavyAtoms>  (35) 
0

>  <Model>  (35) 
1

>  <AltIds>  (35) 


>  <pKI>  (35) 
7.6

>  <ChemblID>  (35) 
CHEMBL1615288

>  <standardized_canonical_smiles>  (35) 
Cc1cc(N)nc(CCc2cncc(CCc3cc(C)cc(N)n3)c2)c1

$$$$
3N61_XFJ_B_800
     RDKit          3D

 26 28  0  0  0  0  0  0  0  0999 V2000
   12.3360   -0.1220   58.0420 N   0  0  0  0  0  0  0  0  0  0  0  0
   11.3830   -0.7580   58.7590 C   0  0  0  0  0  0  0  0  0  0  0  0
   11.0180   -1.9860   58.3570 N   0  0  0  0  0  0  0  0  0  0  0  0
   10.7960   -0.1620   59.9040 C   0  0  0  0  0  0  0  0  0  0  0  0
   11.2310    1.1180   60.2600 C   0  0  0  0  0  0  0  0  0  0  0  0
   12.1920    1.7610   59.4790 C   0  0  0  0  0  0  0  0  0  0  0  0
   12.7560    1.1380   58.3640 C   0  0  0  0  0  0  0  0  0  0  0  0
   10.6640    1.8420   61.4560 C   0  0  0  0  0  0  0  0  0  0  0  0
   13.8180    1.8620   57.5290 C   0  0  0  0  0  0  0  0  0  0  0  0
   15.1620    1.9210   58.2510 C   0  0  0  0  0  0  0  0  0  0  0  0
   18.5460    2.0860   56.5960 N   0  0  0  0  0  0  0  0  0  0  0  0
   17.4670    1.6830   57.2940 C   0  0  0  0  0  0  0  0  0  0  0  0
   16.3210    2.4750   57.4300 C   0  0  0  0  0  0  0  0  0  0  0  0
   16.3280    3.7450   56.8490 C   0  0  0  0  0  0  0  0  0  0  0  0
   17.4720    4.1240   56.1200 C   0  0  0  0  0  0  0  0  0  0  0  0
   18.5740    3.2780   56.0140 C   0  0  0  0  0  0  0  0  0  0  0  0
   17.5590    5.4650   55.4200 C   0  0  0  0  0  0  0  0  0  0  0  0
   18.5080    6.3550   56.2100 C   0  0  0  0  0  0  0  0  0  0  0  0
   17.3850    8.4600   55.5230 N   0  0  0  0  0  0  0  0  0  0  0  0
   17.3570    9.7040   54.9910 C   0  0  0  0  0  0  0  0  0  0  0  0
   16.1840   10.3890   54.9440 N   0  0  0  0  0  0  0  0  0  0  0  0
   18.5450   10.2640   54.5040 C   0  0  0  0  0  0  0  0  0  0  0  0
   19.7380    9.5370   54.5650 C   0  0  0  0  0  0  0  0  0  0  0  0
   19.7350    8.2580   55.1160 C   0  0  0  0  0  0  0  0  0  0  0  0
   18.5340    7.7350   55.5930 C   0  0  0  0  0  0  0  0  0  0  0  0
   21.0240   10.1270   54.0390 C   0  0  0  0  0  0  0  0  0  0  0  0
  2  1  2  0
  7  1  1  0
  3  2  1  0
  4  2  1  0
  5  4  2  0
  6  5  1  0
  8  5  1  0
  7  6  2  0
  9  7  1  0
 10  9  1  0
 13 10  1  0
 12 11  2  0
 16 11  1  0
 13 12  1  0
 14 13  2  0
 15 14  1  0
 16 15  2  0
 17 15  1  0
 18 17  1  0
 25 18  1  0
 20 19  2  0
 25 19  1  0
 21 20  1  0
 22 20  1  0
 23 22  2  0
 24 23  1  0
 26 23  1  0
 25 24  2  0
A    1
N01
A    2
C02
A    3
N02
A    4
C03
A    5
C04
A    6
C05
A    7
C06
A    8
C07
A    9
C08
A   10
C09
A   11
N11
A   12
C12
A   13
C13
A   14
C14
A   15
C15
A   16
C16
A   17
C17
A   18
C18
A   19
N21
A   20
C22
A   21
N22
A   22
C23
A   23
C24
A   24
C25
A   25
C26
A   26
C27
M  END
>  <Id>  (36) 
3N61_XFJ_B_800

>  <ChainId>  (36) 
B

>  <AsymId>  (36) 
L

>  <SeqNum>  (36) 
800

>  <Name>  (36) 
6,6'-(pyridine-3,5-diyldiethane-2,1-diyl)bis(4-methylpyridin-2-amine)

>  <SystematicName>  (36) 
6-[2-[5-[2-(6-azanyl-4-methyl-pyridin-2-yl)ethyl]pyridin-3-yl]ethyl]-4-methyl-pyridin-2-amine

>  <Synonyms>  (36) 


>  <Type>  (36) 
NON-POLYMER

>  <Formula>  (36) 
C21 H25 N5

>  <ObservedFormula>  (36) 
C21 N5

>  <MolecularWeight>  (36) 
347.457

>  <ModifiedDate>  (36) 
2011-06-04

>  <Parent>  (36) 


>  <OneLetterCode>  (36) 


>  <SubcomponentList>  (36) 


>  <AmbiguousFlag>  (36) 
N

>  <InsertionCode>  (36) 


>  <InstanceId>  (36) 
3N61_XFJ_B_800

>  <ChemCompId>  (36) 
XFJ

>  <PdbId>  (36) 
3N61

>  <ResidueNumber>  (36) 
800

>  <InChI>  (36) 
InChI=1S/C21H25N5/c1-14-7-18(25-20(22)9-14)5-3-16-11-17(13-24-12-16)4-6-19-8-15(2)10-21(23)26-19/h7-13H,3-6H2,1-2H3,(H2,22,25)(H2,23,26)

>  <InChIKey>  (36) 
KZHFSPGMRFCRCE-UHFFFAOYSA-N

>  <SMILES>  (36) 
Cc1cc(nc(c1)N)CCc2cc(cnc2)CCc3cc(cc(n3)N)C

>  <MissingHeavyAtoms>  (36) 
0

>  <Model>  (36) 
1

>  <AltIds>  (36) 


>  <pKI>  (36) 
7.6

>  <ChemblID>  (36) 
CHEMBL1615288

>  <standardized_canonical_smiles>  (36) 
Cc1cc(N)nc(CCc2cncc(CCc3cc(C)cc(N)n3)c2)c1

$$$$
3N5W_XFJ_B_805
     RDKit          3D

 26 28  0  0  0  0  0  0  0  0999 V2000
   15.0220    3.0920   49.4490 N   0  0  0  0  0  0  0  0  0  0  0  0
   14.6890    2.8640   48.1520 C   0  0  0  0  0  0  0  0  0  0  0  0
   13.7850    1.8980   47.8280 N   0  0  0  0  0  0  0  0  0  0  0  0
   15.2780    3.6310   47.1510 C   0  0  0  0  0  0  0  0  0  0  0  0
   16.2220    4.5980   47.4430 C   0  0  0  0  0  0  0  0  0  0  0  0
   16.5540    4.8160   48.7760 C   0  0  0  0  0  0  0  0  0  0  0  0
   15.9520    4.0440   49.7560 C   0  0  0  0  0  0  0  0  0  0  0  0
   16.8800    5.4230   46.3600 C   0  0  0  0  0  0  0  0  0  0  0  0
   16.3170    4.3360   51.1970 C   0  0  0  0  0  0  0  0  0  0  0  0
   17.1940    3.2790   51.8360 C   0  0  0  0  0  0  0  0  0  0  0  0
   20.3310    2.0960   50.1380 N   0  0  0  0  0  0  0  0  0  0  0  0
   19.0610    2.1740   50.5770 C   0  0  0  0  0  0  0  0  0  0  0  0
   18.6170    3.2600   51.3370 C   0  0  0  0  0  0  0  0  0  0  0  0
   19.5160    4.2720   51.6840 C   0  0  0  0  0  0  0  0  0  0  0  0
   20.8340    4.1810   51.2320 C   0  0  0  0  0  0  0  0  0  0  0  0
   21.2170    3.0810   50.4560 C   0  0  0  0  0  0  0  0  0  0  0  0
   21.8410    5.2680   51.5870 C   0  0  0  0  0  0  0  0  0  0  0  0
   22.4690    4.9410   52.9400 C   0  0  0  0  0  0  0  0  0  0  0  0
   24.7130    5.8830   52.4430 N   0  0  0  0  0  0  0  0  0  0  0  0
   25.7440    6.7290   52.6830 C   0  0  0  0  0  0  0  0  0  0  0  0
   26.8300    6.6890   51.8710 N   0  0  0  0  0  0  0  0  0  0  0  0
   25.6850    7.6310   53.7490 C   0  0  0  0  0  0  0  0  0  0  0  0
   24.5580    7.6540   54.5730 C   0  0  0  0  0  0  0  0  0  0  0  0
   23.5000    6.7810   54.3010 C   0  0  0  0  0  0  0  0  0  0  0  0
   23.6050    5.8940   53.2310 C   0  0  0  0  0  0  0  0  0  0  0  0
   24.4550    8.6170   55.7380 C   0  0  0  0  0  0  0  0  0  0  0  0
  2  1  2  0
  7  1  1  0
  3  2  1  0
  4  2  1  0
  5  4  2  0
  6  5  1  0
  8  5  1  0
  7  6  2  0
  9  7  1  0
 10  9  1  0
 13 10  1  0
 12 11  2  0
 16 11  1  0
 13 12  1  0
 14 13  2  0
 15 14  1  0
 16 15  2  0
 17 15  1  0
 18 17  1  0
 25 18  1  0
 20 19  2  0
 25 19  1  0
 21 20  1  0
 22 20  1  0
 23 22  2  0
 24 23  1  0
 26 23  1  0
 25 24  2  0
A    1
N01
A    2
C02
A    3
N02
A    4
C03
A    5
C04
A    6
C05
A    7
C06
A    8
C07
A    9
C08
A   10
C09
A   11
N11
A   12
C12
A   13
C13
A   14
C14
A   15
C15
A   16
C16
A   17
C17
A   18
C18
A   19
N21
A   20
C22
A   21
N22
A   22
C23
A   23
C24
A   24
C25
A   25
C26
A   26
C27
M  END
>  <Id>  (37) 
3N5W_XFJ_B_805

>  <ChainId>  (37) 
B

>  <AsymId>  (37) 
M

>  <SeqNum>  (37) 
805

>  <Name>  (37) 
6,6'-(pyridine-3,5-diyldiethane-2,1-diyl)bis(4-methylpyridin-2-amine)

>  <SystematicName>  (37) 
6-[2-[5-[2-(6-azanyl-4-methyl-pyridin-2-yl)ethyl]pyridin-3-yl]ethyl]-4-methyl-pyridin-2-amine

>  <Synonyms>  (37) 


>  <Type>  (37) 
NON-POLYMER

>  <Formula>  (37) 
C21 H25 N5

>  <ObservedFormula>  (37) 
C21 N5

>  <MolecularWeight>  (37) 
347.457

>  <ModifiedDate>  (37) 
2011-06-04

>  <Parent>  (37) 


>  <OneLetterCode>  (37) 


>  <SubcomponentList>  (37) 


>  <AmbiguousFlag>  (37) 
N

>  <InsertionCode>  (37) 


>  <InstanceId>  (37) 
3N5W_XFJ_B_805

>  <ChemCompId>  (37) 
XFJ

>  <PdbId>  (37) 
3N5W

>  <ResidueNumber>  (37) 
805

>  <InChI>  (37) 
InChI=1S/C21H25N5/c1-14-7-18(25-20(22)9-14)5-3-16-11-17(13-24-12-16)4-6-19-8-15(2)10-21(23)26-19/h7-13H,3-6H2,1-2H3,(H2,22,25)(H2,23,26)

>  <InChIKey>  (37) 
KZHFSPGMRFCRCE-UHFFFAOYSA-N

>  <SMILES>  (37) 
Cc1cc(nc(c1)N)CCc2cc(cnc2)CCc3cc(cc(n3)N)C

>  <MissingHeavyAtoms>  (37) 
0

>  <Model>  (37) 
1

>  <AltIds>  (37) 


>  <pKI>  (37) 
7.6

>  <ChemblID>  (37) 
CHEMBL1615288

>  <standardized_canonical_smiles>  (37) 
Cc1cc(N)nc(CCc2cncc(CCc3cc(C)cc(N)n3)c2)c1

$$$$
3N6B_XFJ_B_800
     RDKit          3D

 26 28  0  0  0  0  0  0  0  0999 V2000
    0.1860    9.0360   66.3150 N   0  0  0  0  0  0  0  0  0  0  0  0
    0.2140   10.0870   67.1260 C   0  0  0  0  0  0  0  0  0  0  0  0
   -0.3190   11.2480   66.6830 N   0  0  0  0  0  0  0  0  0  0  0  0
    0.8030    9.9680   68.3770 C   0  0  0  0  0  0  0  0  0  0  0  0
    1.3450    8.7460   68.7580 C   0  0  0  0  0  0  0  0  0  0  0  0
    1.3020    7.6730   67.9010 C   0  0  0  0  0  0  0  0  0  0  0  0
    0.7090    7.8520   66.6700 C   0  0  0  0  0  0  0  0  0  0  0  0
    1.9870    8.5690   70.1020 C   0  0  0  0  0  0  0  0  0  0  0  0
    0.6180    6.7060   65.6900 C   0  0  0  0  0  0  0  0  0  0  0  0
   -0.6960    5.9450   65.9180 C   0  0  0  0  0  0  0  0  0  0  0  0
   -2.6030    3.4360   63.8400 N   0  0  0  0  0  0  0  0  0  0  0  0
   -2.2980    4.4190   64.7100 C   0  0  0  0  0  0  0  0  0  0  0  0
   -0.9760    4.8440   64.9100 C   0  0  0  0  0  0  0  0  0  0  0  0
    0.0470    4.2210   64.1950 C   0  0  0  0  0  0  0  0  0  0  0  0
   -0.2890    3.2090   63.2900 C   0  0  0  0  0  0  0  0  0  0  0  0
   -1.6320    2.8370   63.1330 C   0  0  0  0  0  0  0  0  0  0  0  0
    0.8010    2.5040   62.5080 C   0  0  0  0  0  0  0  0  0  0  0  0
    1.3740    1.4620   63.4690 C   0  0  0  0  0  0  0  0  0  0  0  0
    1.7010   -0.7130   62.3770 N   0  0  0  0  0  0  0  0  0  0  0  0
    1.2970   -1.9560   62.0070 C   0  0  0  0  0  0  0  0  0  0  0  0
    2.1600   -2.7330   61.3060 N   0  0  0  0  0  0  0  0  0  0  0  0
    0.0020   -2.4270   62.3460 C   0  0  0  0  0  0  0  0  0  0  0  0
   -0.8880   -1.6140   63.0840 C   0  0  0  0  0  0  0  0  0  0  0  0
   -0.4250   -0.3360   63.4530 C   0  0  0  0  0  0  0  0  0  0  0  0
    0.8720    0.0940   63.0880 C   0  0  0  0  0  0  0  0  0  0  0  0
   -2.2830   -2.0970   63.4730 C   0  0  0  0  0  0  0  0  0  0  0  0
  2  1  2  0
  7  1  1  0
  3  2  1  0
  4  2  1  0
  5  4  2  0
  6  5  1  0
  8  5  1  0
  7  6  2  0
  9  7  1  0
 10  9  1  0
 13 10  1  0
 12 11  2  0
 16 11  1  0
 13 12  1  0
 14 13  2  0
 15 14  1  0
 16 15  2  0
 17 15  1  0
 18 17  1  0
 25 18  1  0
 20 19  2  0
 25 19  1  0
 21 20  1  0
 22 20  1  0
 23 22  2  0
 24 23  1  0
 26 23  1  0
 25 24  2  0
A    1
N01
A    2
C02
A    3
N02
A    4
C03
A    5
C04
A    6
C05
A    7
C06
A    8
C07
A    9
C08
A   10
C09
A   11
N11
A   12
C12
A   13
C13
A   14
C14
A   15
C15
A   16
C16
A   17
C17
A   18
C18
A   19
N21
A   20
C22
A   21
N22
A   22
C23
A   23
C24
A   24
C25
A   25
C26
A   26
C27
M  END
>  <Id>  (38) 
3N6B_XFJ_B_800

>  <ChainId>  (38) 
B

>  <AsymId>  (38) 
K

>  <SeqNum>  (38) 
800

>  <Name>  (38) 
6,6'-(pyridine-3,5-diyldiethane-2,1-diyl)bis(4-methylpyridin-2-amine)

>  <SystematicName>  (38) 
6-[2-[5-[2-(6-azanyl-4-methyl-pyridin-2-yl)ethyl]pyridin-3-yl]ethyl]-4-methyl-pyridin-2-amine

>  <Synonyms>  (38) 


>  <Type>  (38) 
NON-POLYMER

>  <Formula>  (38) 
C21 H25 N5

>  <ObservedFormula>  (38) 
C21 N5

>  <MolecularWeight>  (38) 
347.457

>  <ModifiedDate>  (38) 
2011-06-04

>  <Parent>  (38) 


>  <OneLetterCode>  (38) 


>  <SubcomponentList>  (38) 


>  <AmbiguousFlag>  (38) 
N

>  <InsertionCode>  (38) 


>  <InstanceId>  (38) 
3N6B_XFJ_B_800

>  <ChemCompId>  (38) 
XFJ

>  <PdbId>  (38) 
3N6B

>  <ResidueNumber>  (38) 
800

>  <InChI>  (38) 
InChI=1S/C21H25N5/c1-14-7-18(25-20(22)9-14)5-3-16-11-17(13-24-12-16)4-6-19-8-15(2)10-21(23)26-19/h7-13H,3-6H2,1-2H3,(H2,22,25)(H2,23,26)

>  <InChIKey>  (38) 
KZHFSPGMRFCRCE-UHFFFAOYSA-N

>  <SMILES>  (38) 
Cc1cc(nc(c1)N)CCc2cc(cnc2)CCc3cc(cc(n3)N)C

>  <MissingHeavyAtoms>  (38) 
0

>  <Model>  (38) 
1

>  <AltIds>  (38) 


>  <pKI>  (38) 
7.6

>  <ChemblID>  (38) 
CHEMBL1615288

>  <standardized_canonical_smiles>  (38) 
Cc1cc(N)nc(CCc2cncc(CCc3cc(C)cc(N)n3)c2)c1

$$$$
3N62_XFJ_B_719
     RDKit          3D

 26 28  0  0  0  0  0  0  0  0999 V2000
   15.3050    3.3640   49.3240 N   0  0  0  0  0  0  0  0  0  0  0  0
   14.8410    3.1440   48.0730 C   0  0  0  0  0  0  0  0  0  0  0  0
   13.8850    2.2030   47.8630 N   0  0  0  0  0  0  0  0  0  0  0  0
   15.3450    3.8800   47.0080 C   0  0  0  0  0  0  0  0  0  0  0  0
   16.3320    4.8340   47.2330 C   0  0  0  0  0  0  0  0  0  0  0  0
   16.7830    5.0410   48.5320 C   0  0  0  0  0  0  0  0  0  0  0  0
   16.2550    4.2830   49.5700 C   0  0  0  0  0  0  0  0  0  0  0  0
   16.9000    5.6480   46.0880 C   0  0  0  0  0  0  0  0  0  0  0  0
   16.7470    4.5260   50.9850 C   0  0  0  0  0  0  0  0  0  0  0  0
   17.3430    3.2970   51.6460 C   0  0  0  0  0  0  0  0  0  0  0  0
   20.4880    1.9820   50.1470 N   0  0  0  0  0  0  0  0  0  0  0  0
   19.2110    2.0710   50.5190 C   0  0  0  0  0  0  0  0  0  0  0  0
   18.7830    3.1920   51.2100 C   0  0  0  0  0  0  0  0  0  0  0  0
   19.6820    4.2080   51.5140 C   0  0  0  0  0  0  0  0  0  0  0  0
   20.9990    4.0830   51.1040 C   0  0  0  0  0  0  0  0  0  0  0  0
   21.3770    2.9450   50.4170 C   0  0  0  0  0  0  0  0  0  0  0  0
   22.0140    5.1520   51.4190 C   0  0  0  0  0  0  0  0  0  0  0  0
   22.5450    4.8910   52.8260 C   0  0  0  0  0  0  0  0  0  0  0  0
   24.8170    5.7900   52.3810 N   0  0  0  0  0  0  0  0  0  0  0  0
   25.8310    6.6530   52.5990 C   0  0  0  0  0  0  0  0  0  0  0  0
   26.9810    6.5440   51.8850 N   0  0  0  0  0  0  0  0  0  0  0  0
   25.7040    7.6520   53.5550 C   0  0  0  0  0  0  0  0  0  0  0  0
   24.5250    7.7600   54.2900 C   0  0  0  0  0  0  0  0  0  0  0  0
   23.4860    6.8640   54.0540 C   0  0  0  0  0  0  0  0  0  0  0  0
   23.6620    5.8710   53.0960 C   0  0  0  0  0  0  0  0  0  0  0  0
   24.3720    8.8490   55.3190 C   0  0  0  0  0  0  0  0  0  0  0  0
  2  1  2  0
  7  1  1  0
  3  2  1  0
  4  2  1  0
  5  4  2  0
  6  5  1  0
  8  5  1  0
  7  6  2  0
  9  7  1  0
 10  9  1  0
 13 10  1  0
 12 11  2  0
 16 11  1  0
 13 12  1  0
 14 13  2  0
 15 14  1  0
 16 15  2  0
 17 15  1  0
 18 17  1  0
 25 18  1  0
 20 19  2  0
 25 19  1  0
 21 20  1  0
 22 20  1  0
 23 22  2  0
 24 23  1  0
 26 23  1  0
 25 24  2  0
A    1
N01
A    2
C02
A    3
N02
A    4
C03
A    5
C04
A    6
C05
A    7
C06
A    8
C07
A    9
C08
A   10
C09
A   11
N11
A   12
C12
A   13
C13
A   14
C14
A   15
C15
A   16
C16
A   17
C17
A   18
C18
A   19
N21
A   20
C22
A   21
N22
A   22
C23
A   23
C24
A   24
C25
A   25
C26
A   26
C27
M  END
>  <Id>  (39) 
3N62_XFJ_B_719

>  <ChainId>  (39) 
B

>  <AsymId>  (39) 
P

>  <SeqNum>  (39) 
719

>  <Name>  (39) 
6,6'-(pyridine-3,5-diyldiethane-2,1-diyl)bis(4-methylpyridin-2-amine)

>  <SystematicName>  (39) 
6-[2-[5-[2-(6-azanyl-4-methyl-pyridin-2-yl)ethyl]pyridin-3-yl]ethyl]-4-methyl-pyridin-2-amine

>  <Synonyms>  (39) 


>  <Type>  (39) 
NON-POLYMER

>  <Formula>  (39) 
C21 H25 N5

>  <ObservedFormula>  (39) 
C21 N5

>  <MolecularWeight>  (39) 
347.457

>  <ModifiedDate>  (39) 
2011-06-04

>  <Parent>  (39) 


>  <OneLetterCode>  (39) 


>  <SubcomponentList>  (39) 


>  <AmbiguousFlag>  (39) 
N

>  <InsertionCode>  (39) 


>  <InstanceId>  (39) 
3N62_XFJ_B_719

>  <ChemCompId>  (39) 
XFJ

>  <PdbId>  (39) 
3N62

>  <ResidueNumber>  (39) 
719

>  <InChI>  (39) 
InChI=1S/C21H25N5/c1-14-7-18(25-20(22)9-14)5-3-16-11-17(13-24-12-16)4-6-19-8-15(2)10-21(23)26-19/h7-13H,3-6H2,1-2H3,(H2,22,25)(H2,23,26)

>  <InChIKey>  (39) 
KZHFSPGMRFCRCE-UHFFFAOYSA-N

>  <SMILES>  (39) 
Cc1cc(nc(c1)N)CCc2cc(cnc2)CCc3cc(cc(n3)N)C

>  <MissingHeavyAtoms>  (39) 
0

>  <Model>  (39) 
1

>  <AltIds>  (39) 


>  <pKI>  (39) 
7.6

>  <ChemblID>  (39) 
CHEMBL1615288

>  <standardized_canonical_smiles>  (39) 
Cc1cc(N)nc(CCc2cncc(CCc3cc(C)cc(N)n3)c2)c1

$$$$
3N69_XFJ_B_800
     RDKit          3D

 26 28  0  0  0  0  0  0  0  0999 V2000
   -0.1780    9.1860   66.1450 N   0  0  0  0  0  0  0  0  0  0  0  0
    0.0810   10.2590   66.9300 C   0  0  0  0  0  0  0  0  0  0  0  0
   -0.2930   11.4750   66.4690 N   0  0  0  0  0  0  0  0  0  0  0  0
    0.7460   10.1380   68.1600 C   0  0  0  0  0  0  0  0  0  0  0  0
    1.1330    8.8660   68.5670 C   0  0  0  0  0  0  0  0  0  0  0  0
    0.8530    7.7850   67.7480 C   0  0  0  0  0  0  0  0  0  0  0  0
    0.1780    7.9610   66.5360 C   0  0  0  0  0  0  0  0  0  0  0  0
    1.8370    8.6590   69.8790 C   0  0  0  0  0  0  0  0  0  0  0  0
   -0.1120    6.8030   65.6080 C   0  0  0  0  0  0  0  0  0  0  0  0
   -1.1850    5.8480   66.0960 C   0  0  0  0  0  0  0  0  0  0  0  0
   -3.0450    3.4940   63.7800 N   0  0  0  0  0  0  0  0  0  0  0  0
   -2.7550    4.4600   64.6820 C   0  0  0  0  0  0  0  0  0  0  0  0
   -1.4330    4.7390   65.0730 C   0  0  0  0  0  0  0  0  0  0  0  0
   -0.3980    3.9650   64.5150 C   0  0  0  0  0  0  0  0  0  0  0  0
   -0.7390    2.9530   63.5880 C   0  0  0  0  0  0  0  0  0  0  0  0
   -2.0780    2.7460   63.2120 C   0  0  0  0  0  0  0  0  0  0  0  0
    0.3810    2.1480   62.9780 C   0  0  0  0  0  0  0  0  0  0  0  0
   -0.0880    0.8370   62.4160 C   0  0  0  0  0  0  0  0  0  0  0  0
    2.3890    0.3130   62.3980 N   0  0  0  0  0  0  0  0  0  0  0  0
    3.4880   -0.4130   61.9850 C   0  0  0  0  0  0  0  0  0  0  0  0
    4.7800   -0.1150   62.4220 N   0  0  0  0  0  0  0  0  0  0  0  0
    3.2740   -1.4920   61.1100 C   0  0  0  0  0  0  0  0  0  0  0  0
    1.9650   -1.7850   60.6680 C   0  0  0  0  0  0  0  0  0  0  0  0
    0.8850   -1.0160   61.1030 C   0  0  0  0  0  0  0  0  0  0  0  0
    1.1170    0.0430   61.9700 C   0  0  0  0  0  0  0  0  0  0  0  0
    1.6920   -2.9300   59.7210 C   0  0  0  0  0  0  0  0  0  0  0  0
  2  1  2  0
  7  1  1  0
  3  2  1  0
  4  2  1  0
  5  4  2  0
  6  5  1  0
  8  5  1  0
  7  6  2  0
  9  7  1  0
 10  9  1  0
 13 10  1  0
 12 11  2  0
 16 11  1  0
 13 12  1  0
 14 13  2  0
 15 14  1  0
 16 15  2  0
 17 15  1  0
 18 17  1  0
 25 18  1  0
 20 19  2  0
 25 19  1  0
 21 20  1  0
 22 20  1  0
 23 22  2  0
 24 23  1  0
 26 23  1  0
 25 24  2  0
A    1
N01
A    2
C02
A    3
N02
A    4
C03
A    5
C04
A    6
C05
A    7
C06
A    8
C07
A    9
C08
A   10
C09
A   11
N11
A   12
C12
A   13
C13
A   14
C14
A   15
C15
A   16
C16
A   17
C17
A   18
C18
A   19
N21
A   20
C22
A   21
N22
A   22
C23
A   23
C24
A   24
C25
A   25
C26
A   26
C27
M  END
>  <Id>  (40) 
3N69_XFJ_B_800

>  <ChainId>  (40) 
B

>  <AsymId>  (40) 
M

>  <SeqNum>  (40) 
800

>  <Name>  (40) 
6,6'-(pyridine-3,5-diyldiethane-2,1-diyl)bis(4-methylpyridin-2-amine)

>  <SystematicName>  (40) 
6-[2-[5-[2-(6-azanyl-4-methyl-pyridin-2-yl)ethyl]pyridin-3-yl]ethyl]-4-methyl-pyridin-2-amine

>  <Synonyms>  (40) 


>  <Type>  (40) 
NON-POLYMER

>  <Formula>  (40) 
C21 H25 N5

>  <ObservedFormula>  (40) 
C21 N5

>  <MolecularWeight>  (40) 
347.457

>  <ModifiedDate>  (40) 
2011-06-04

>  <Parent>  (40) 


>  <OneLetterCode>  (40) 


>  <SubcomponentList>  (40) 


>  <AmbiguousFlag>  (40) 
N

>  <InsertionCode>  (40) 


>  <InstanceId>  (40) 
3N69_XFJ_B_800

>  <ChemCompId>  (40) 
XFJ

>  <PdbId>  (40) 
3N69

>  <ResidueNumber>  (40) 
800

>  <InChI>  (40) 
InChI=1S/C21H25N5/c1-14-7-18(25-20(22)9-14)5-3-16-11-17(13-24-12-16)4-6-19-8-15(2)10-21(23)26-19/h7-13H,3-6H2,1-2H3,(H2,22,25)(H2,23,26)

>  <InChIKey>  (40) 
KZHFSPGMRFCRCE-UHFFFAOYSA-N

>  <SMILES>  (40) 
Cc1cc(nc(c1)N)CCc2cc(cnc2)CCc3cc(cc(n3)N)C

>  <MissingHeavyAtoms>  (40) 
0

>  <Model>  (40) 
1

>  <AltIds>  (40) 


>  <pKI>  (40) 
7.6

>  <ChemblID>  (40) 
CHEMBL1615288

>  <standardized_canonical_smiles>  (40) 
Cc1cc(N)nc(CCc2cncc(CCc3cc(C)cc(N)n3)c2)c1

$$$$
3N6F_XFJ_B_800
     RDKit          3D

 26 28  0  0  0  0  0  0  0  0999 V2000
   -0.1900    9.2910   66.1910 N   0  0  0  0  0  0  0  0  0  0  0  0
    0.0610   10.3610   66.9660 C   0  0  0  0  0  0  0  0  0  0  0  0
   -0.3230   11.5810   66.5140 N   0  0  0  0  0  0  0  0  0  0  0  0
    0.7190   10.2050   68.1900 C   0  0  0  0  0  0  0  0  0  0  0  0
    1.1040    8.9290   68.5870 C   0  0  0  0  0  0  0  0  0  0  0  0
    0.8220    7.8470   67.7730 C   0  0  0  0  0  0  0  0  0  0  0  0
    0.1650    8.0490   66.5630 C   0  0  0  0  0  0  0  0  0  0  0  0
    1.7930    8.7110   69.9070 C   0  0  0  0  0  0  0  0  0  0  0  0
   -0.1490    6.9140   65.6090 C   0  0  0  0  0  0  0  0  0  0  0  0
   -0.9710    5.7980   66.2200 C   0  0  0  0  0  0  0  0  0  0  0  0
   -2.9440    3.6770   63.8360 N   0  0  0  0  0  0  0  0  0  0  0  0
   -2.6060    4.5960   64.7640 C   0  0  0  0  0  0  0  0  0  0  0  0
   -1.2740    4.7560   65.1670 C   0  0  0  0  0  0  0  0  0  0  0  0
   -0.2920    3.9410   64.6000 C   0  0  0  0  0  0  0  0  0  0  0  0
   -0.6760    2.9900   63.6380 C   0  0  0  0  0  0  0  0  0  0  0  0
   -2.0210    2.8750   63.2680 C   0  0  0  0  0  0  0  0  0  0  0  0
    0.3450    2.0880   62.9700 C   0  0  0  0  0  0  0  0  0  0  0  0
    0.0300    0.6560   63.3670 C   0  0  0  0  0  0  0  0  0  0  0  0
    2.3890   -0.0140   62.9580 N   0  0  0  0  0  0  0  0  0  0  0  0
    3.3660   -0.8260   62.4970 C   0  0  0  0  0  0  0  0  0  0  0  0
    4.6770   -0.4910   62.7020 N   0  0  0  0  0  0  0  0  0  0  0  0
    2.9980   -1.9870   61.8160 C   0  0  0  0  0  0  0  0  0  0  0  0
    1.6350   -2.2830   61.6310 C   0  0  0  0  0  0  0  0  0  0  0  0
    0.6570   -1.4260   62.1270 C   0  0  0  0  0  0  0  0  0  0  0  0
    1.0680   -0.2840   62.8060 C   0  0  0  0  0  0  0  0  0  0  0  0
    1.2040   -3.5240   60.8970 C   0  0  0  0  0  0  0  0  0  0  0  0
  2  1  2  0
  7  1  1  0
  3  2  1  0
  4  2  1  0
  5  4  2  0
  6  5  1  0
  8  5  1  0
  7  6  2  0
  9  7  1  0
 10  9  1  0
 13 10  1  0
 12 11  2  0
 16 11  1  0
 13 12  1  0
 14 13  2  0
 15 14  1  0
 16 15  2  0
 17 15  1  0
 18 17  1  0
 25 18  1  0
 20 19  2  0
 25 19  1  0
 21 20  1  0
 22 20  1  0
 23 22  2  0
 24 23  1  0
 26 23  1  0
 25 24  2  0
A    1
N01
A    2
C02
A    3
N02
A    4
C03
A    5
C04
A    6
C05
A    7
C06
A    8
C07
A    9
C08
A   10
C09
A   11
N11
A   12
C12
A   13
C13
A   14
C14
A   15
C15
A   16
C16
A   17
C17
A   18
C18
A   19
N21
A   20
C22
A   21
N22
A   22
C23
A   23
C24
A   24
C25
A   25
C26
A   26
C27
M  END
>  <Id>  (41) 
3N6F_XFJ_B_800

>  <ChainId>  (41) 
B

>  <AsymId>  (41) 
O

>  <SeqNum>  (41) 
800

>  <Name>  (41) 
6,6'-(pyridine-3,5-diyldiethane-2,1-diyl)bis(4-methylpyridin-2-amine)

>  <SystematicName>  (41) 
6-[2-[5-[2-(6-azanyl-4-methyl-pyridin-2-yl)ethyl]pyridin-3-yl]ethyl]-4-methyl-pyridin-2-amine

>  <Synonyms>  (41) 


>  <Type>  (41) 
NON-POLYMER

>  <Formula>  (41) 
C21 H25 N5

>  <ObservedFormula>  (41) 
C21 N5

>  <MolecularWeight>  (41) 
347.457

>  <ModifiedDate>  (41) 
2011-06-04

>  <Parent>  (41) 


>  <OneLetterCode>  (41) 


>  <SubcomponentList>  (41) 


>  <AmbiguousFlag>  (41) 
N

>  <InsertionCode>  (41) 


>  <InstanceId>  (41) 
3N6F_XFJ_B_800

>  <ChemCompId>  (41) 
XFJ

>  <PdbId>  (41) 
3N6F

>  <ResidueNumber>  (41) 
800

>  <InChI>  (41) 
InChI=1S/C21H25N5/c1-14-7-18(25-20(22)9-14)5-3-16-11-17(13-24-12-16)4-6-19-8-15(2)10-21(23)26-19/h7-13H,3-6H2,1-2H3,(H2,22,25)(H2,23,26)

>  <InChIKey>  (41) 
KZHFSPGMRFCRCE-UHFFFAOYSA-N

>  <SMILES>  (41) 
Cc1cc(nc(c1)N)CCc2cc(cnc2)CCc3cc(cc(n3)N)C

>  <MissingHeavyAtoms>  (41) 
0

>  <Model>  (41) 
1

>  <AltIds>  (41) 


>  <pKI>  (41) 
7.6

>  <ChemblID>  (41) 
CHEMBL1615288

>  <standardized_canonical_smiles>  (41) 
Cc1cc(N)nc(CCc2cncc(CCc3cc(C)cc(N)n3)c2)c1

$$$$
3N5V_XFH_B_800
     RDKit          3D

 26 28  0  0  0  0  0  0  0  0999 V2000
   12.4520   -0.2860   58.8590 N   0  0  0  0  0  0  0  0  0  0  0  0
   11.3020   -0.7370   59.3990 C   0  0  0  0  0  0  0  0  0  0  0  0
   10.7310   -1.8160   58.8630 N   0  0  0  0  0  0  0  0  0  0  0  0
   10.7170   -0.1160   60.5150 C   0  0  0  0  0  0  0  0  0  0  0  0
   11.3370    1.0030   61.0750 C   0  0  0  0  0  0  0  0  0  0  0  0
   12.5210    1.4580   60.4890 C   0  0  0  0  0  0  0  0  0  0  0  0
   13.0840    0.8180   59.3710 C   0  0  0  0  0  0  0  0  0  0  0  0
   10.7630    1.7350   62.2650 C   0  0  0  0  0  0  0  0  0  0  0  0
   14.4070    1.3500   58.7770 C   0  0  0  0  0  0  0  0  0  0  0  0
   14.2410    2.4490   57.7460 C   0  0  0  0  0  0  0  0  0  0  0  0
   13.2570    5.8270   59.2420 C   0  0  0  0  0  0  0  0  0  0  0  0
   13.2090    4.5000   58.7470 C   0  0  0  0  0  0  0  0  0  0  0  0
   14.3750    3.8680   58.2550 C   0  0  0  0  0  0  0  0  0  0  0  0
   15.6030    4.5830   58.2290 C   0  0  0  0  0  0  0  0  0  0  0  0
   15.6660    5.9230   58.7240 C   0  0  0  0  0  0  0  0  0  0  0  0
   14.4860    6.5240   59.2210 C   0  0  0  0  0  0  0  0  0  0  0  0
   16.9700    6.7350   58.7560 C   0  0  0  0  0  0  0  0  0  0  0  0
   16.8210    8.0750   58.0310 C   0  0  0  0  0  0  0  0  0  0  0  0
   17.8110   10.0700   59.2290 C   0  0  0  0  0  0  0  0  0  0  0  0
   18.7660   11.0790   59.4040 C   0  0  0  0  0  0  0  0  0  0  0  0
   18.6160   11.9590   60.4600 N   0  0  0  0  0  0  0  0  0  0  0  0
   19.8200   11.1670   58.5270 N   0  0  0  0  0  0  0  0  0  0  0  0
   19.9300   10.2830   57.4880 C   0  0  0  0  0  0  0  0  0  0  0  0
   18.9780    9.2630   57.2990 C   0  0  0  0  0  0  0  0  0  0  0  0
   17.9100    9.1430   58.1980 C   0  0  0  0  0  0  0  0  0  0  0  0
   21.0950   10.3950   56.5260 C   0  0  0  0  0  0  0  0  0  0  0  0
  2  1  2  0
  7  1  1  0
  3  2  1  0
  4  2  1  0
  5  4  2  0
  6  5  1  0
  8  5  1  0
  7  6  2  0
  9  7  1  0
 10  9  1  0
 13 10  1  0
 12 11  2  0
 16 11  1  0
 13 12  1  0
 14 13  2  0
 15 14  1  0
 16 15  2  0
 17 15  1  0
 18 17  1  0
 25 18  1  0
 20 19  2  0
 25 19  1  0
 21 20  1  0
 22 20  1  0
 23 22  2  0
 24 23  1  0
 26 23  1  0
 25 24  2  0
A    1
N01
A    2
C02
A    3
N02
A    4
C03
A    5
C04
A    6
C05
A    7
C06
A    8
C07
A    9
C08
A   10
C09
A   11
C11
A   12
C12
A   13
C13
A   14
C14
A   15
C15
A   16
C16
A   17
C17
A   18
C18
A   19
C21
A   20
C22
A   21
N22
A   22
N23
A   23
C24
A   24
C25
A   25
C26
A   26
C27
M  END
>  <Id>  (42) 
3N5V_XFH_B_800

>  <ChainId>  (42) 
B

>  <AsymId>  (42) 
J

>  <SeqNum>  (42) 
800

>  <Name>  (42) 
6-(2-{3-[2-(2-amino-6-methylpyridin-4-yl)ethyl]phenyl}ethyl)-4-methylpyridin-2-amine

>  <SystematicName>  (42) 
6-[2-[3-[2-(2-azanyl-6-methyl-pyridin-4-yl)ethyl]phenyl]ethyl]-4-methyl-pyridin-2-amine

>  <Synonyms>  (42) 


>  <Type>  (42) 
NON-POLYMER

>  <Formula>  (42) 
C22 H26 N4

>  <ObservedFormula>  (42) 
C22 N4

>  <MolecularWeight>  (42) 
346.469

>  <ModifiedDate>  (42) 
2011-06-04

>  <Parent>  (42) 


>  <OneLetterCode>  (42) 


>  <SubcomponentList>  (42) 


>  <AmbiguousFlag>  (42) 
N

>  <InsertionCode>  (42) 


>  <InstanceId>  (42) 
3N5V_XFH_B_800

>  <ChemCompId>  (42) 
XFH

>  <PdbId>  (42) 
3N5V

>  <ResidueNumber>  (42) 
800

>  <InChI>  (42) 
InChI=1S/C22H26N4/c1-15-10-20(26-21(23)11-15)9-8-18-5-3-4-17(13-18)6-7-19-12-16(2)25-22(24)14-19/h3-5,10-14H,6-9H2,1-2H3,(H2,23,26)(H2,24,25)

>  <InChIKey>  (42) 
JVYPSLPLMFVFFX-UHFFFAOYSA-N

>  <SMILES>  (42) 
Cc1cc(nc(c1)N)CCc2cccc(c2)CCc3cc(nc(c3)N)C

>  <MissingHeavyAtoms>  (42) 
0

>  <Model>  (42) 
1

>  <AltIds>  (42) 


>  <pKI>  (42) 
7.42

>  <ChemblID>  (42) 
CHEMBL1615287

>  <standardized_canonical_smiles>  (42) 
Cc1cc(N)nc(CCc2cccc(CCc3cc(C)nc(N)c3)c2)c1

$$$$
3N68_XFH_B_800
     RDKit          3D

 26 28  0  0  0  0  0  0  0  0999 V2000
   -0.7830    9.1900   66.3890 N   0  0  0  0  0  0  0  0  0  0  0  0
   -0.2860   10.3140   66.9640 C   0  0  0  0  0  0  0  0  0  0  0  0
   -0.5050   11.5380   66.3940 N   0  0  0  0  0  0  0  0  0  0  0  0
    0.4500   10.2160   68.1360 C   0  0  0  0  0  0  0  0  0  0  0  0
    0.6640    8.9700   68.7010 C   0  0  0  0  0  0  0  0  0  0  0  0
    0.1340    7.8270   68.0930 C   0  0  0  0  0  0  0  0  0  0  0  0
   -0.5890    7.9630   66.9010 C   0  0  0  0  0  0  0  0  0  0  0  0
    1.4530    8.8830   69.9760 C   0  0  0  0  0  0  0  0  0  0  0  0
   -1.2000    6.7690   66.1930 C   0  0  0  0  0  0  0  0  0  0  0  0
   -0.3500    6.2460   65.0510 C   0  0  0  0  0  0  0  0  0  0  0  0
    2.7130    4.5200   66.5000 C   0  0  0  0  0  0  0  0  0  0  0  0
    1.8300    5.5110   66.0820 C   0  0  0  0  0  0  0  0  0  0  0  0
    0.6050    5.1550   65.4940 C   0  0  0  0  0  0  0  0  0  0  0  0
    0.2920    3.7980   65.3010 C   0  0  0  0  0  0  0  0  0  0  0  0
    1.1970    2.8000   65.7110 C   0  0  0  0  0  0  0  0  0  0  0  0
    2.3960    3.1710   66.3140 C   0  0  0  0  0  0  0  0  0  0  0  0
    0.9010    1.3240   65.5400 C   0  0  0  0  0  0  0  0  0  0  0  0
    0.5500    0.9060   64.0980 C   0  0  0  0  0  0  0  0  0  0  0  0
   -0.7970   -1.2450   64.2740 C   0  0  0  0  0  0  0  0  0  0  0  0
   -0.8820   -2.6470   64.2490 C   0  0  0  0  0  0  0  0  0  0  0  0
   -2.0640   -3.2960   64.4490 N   0  0  0  0  0  0  0  0  0  0  0  0
    0.2460   -3.3790   64.0120 N   0  0  0  0  0  0  0  0  0  0  0  0
    1.4580   -2.7850   63.8030 C   0  0  0  0  0  0  0  0  0  0  0  0
    1.5830   -1.3950   63.8190 C   0  0  0  0  0  0  0  0  0  0  0  0
    0.4410   -0.6130   64.0560 C   0  0  0  0  0  0  0  0  0  0  0  0
    2.6460   -3.6650   63.5510 C   0  0  0  0  0  0  0  0  0  0  0  0
  2  1  2  0
  7  1  1  0
  3  2  1  0
  4  2  1  0
  5  4  2  0
  6  5  1  0
  8  5  1  0
  7  6  2  0
  9  7  1  0
 10  9  1  0
 13 10  1  0
 12 11  2  0
 16 11  1  0
 13 12  1  0
 14 13  2  0
 15 14  1  0
 16 15  2  0
 17 15  1  0
 18 17  1  0
 25 18  1  0
 20 19  2  0
 25 19  1  0
 21 20  1  0
 22 20  1  0
 23 22  2  0
 24 23  1  0
 26 23  1  0
 25 24  2  0
A    1
N01
A    2
C02
A    3
N02
A    4
C03
A    5
C04
A    6
C05
A    7
C06
A    8
C07
A    9
C08
A   10
C09
A   11
C11
A   12
C12
A   13
C13
A   14
C14
A   15
C15
A   16
C16
A   17
C17
A   18
C18
A   19
C21
A   20
C22
A   21
N22
A   22
N23
A   23
C24
A   24
C25
A   25
C26
A   26
C27
M  END
>  <Id>  (43) 
3N68_XFH_B_800

>  <ChainId>  (43) 
B

>  <AsymId>  (43) 
N

>  <SeqNum>  (43) 
800

>  <Name>  (43) 
6-(2-{3-[2-(2-amino-6-methylpyridin-4-yl)ethyl]phenyl}ethyl)-4-methylpyridin-2-amine

>  <SystematicName>  (43) 
6-[2-[3-[2-(2-azanyl-6-methyl-pyridin-4-yl)ethyl]phenyl]ethyl]-4-methyl-pyridin-2-amine

>  <Synonyms>  (43) 


>  <Type>  (43) 
NON-POLYMER

>  <Formula>  (43) 
C22 H26 N4

>  <ObservedFormula>  (43) 
C22 N4

>  <MolecularWeight>  (43) 
346.469

>  <ModifiedDate>  (43) 
2011-06-04

>  <Parent>  (43) 


>  <OneLetterCode>  (43) 


>  <SubcomponentList>  (43) 


>  <AmbiguousFlag>  (43) 
N

>  <InsertionCode>  (43) 


>  <InstanceId>  (43) 
3N68_XFH_B_800

>  <ChemCompId>  (43) 
XFH

>  <PdbId>  (43) 
3N68

>  <ResidueNumber>  (43) 
800

>  <InChI>  (43) 
InChI=1S/C22H26N4/c1-15-10-20(26-21(23)11-15)9-8-18-5-3-4-17(13-18)6-7-19-12-16(2)25-22(24)14-19/h3-5,10-14H,6-9H2,1-2H3,(H2,23,26)(H2,24,25)

>  <InChIKey>  (43) 
JVYPSLPLMFVFFX-UHFFFAOYSA-N

>  <SMILES>  (43) 
Cc1cc(nc(c1)N)CCc2cccc(c2)CCc3cc(nc(c3)N)C

>  <MissingHeavyAtoms>  (43) 
0

>  <Model>  (43) 
1

>  <AltIds>  (43) 


>  <pKI>  (43) 
7.42

>  <ChemblID>  (43) 
CHEMBL1615287

>  <standardized_canonical_smiles>  (43) 
Cc1cc(N)nc(CCc2cccc(CCc3cc(C)nc(N)c3)c2)c1

$$$$
3NLY_3XC_B_800
     RDKit          3D

 29 31  0  0  0  0  0  0  0  0999 V2000
   17.9690    2.3100   56.8280 C   0  0  0  0  0  0  0  0  0  0  0  0
   17.8260    3.5890   56.1920 O   0  0  0  0  0  0  0  0  0  0  0  0
   16.8760    2.1530   57.8880 C   0  0  0  0  0  0  0  0  0  0  0  0
   15.5200    2.2470   57.3860 N   0  0  0  0  0  0  0  0  0  0  0  0
   14.4910    1.4950   58.0810 C   0  0  0  0  0  0  0  0  0  0  0  0
   13.0620    1.9640   57.6900 C   0  0  0  0  0  0  0  0  0  0  0  0
   12.9830    3.2930   57.7720 F   0  0  0  0  0  0  0  0  0  0  0  0
   12.7840    1.6400   56.4160 F   0  0  0  0  0  0  0  0  0  0  0  0
   17.4400    3.7220   53.4450 N   0  0  0  0  0  0  0  0  0  0  0  0
   12.0890    1.2390   58.6150 C   0  0  0  0  0  0  0  0  0  0  0  0
   11.5710    1.8600   59.7530 C   0  0  0  0  0  0  0  0  0  0  0  0
   10.7380    1.1980   60.6380 C   0  0  0  0  0  0  0  0  0  0  0  0
   10.3810   -0.1150   60.3420 C   0  0  0  0  0  0  0  0  0  0  0  0
    9.5460   -0.7620   61.1710 F   0  0  0  0  0  0  0  0  0  0  0  0
   10.8640   -0.7670   59.2040 C   0  0  0  0  0  0  0  0  0  0  0  0
   11.7320   -0.0940   58.3580 C   0  0  0  0  0  0  0  0  0  0  0  0
   17.0920    8.5260   55.2220 N   0  0  0  0  0  0  0  0  0  0  0  0
   18.6680    3.1590   53.9770 C   0  0  0  0  0  0  0  0  0  0  0  0
   18.2920    7.8650   55.1870 C   0  0  0  0  0  0  0  0  0  0  0  0
   18.8490    3.9890   55.2510 C   0  0  0  0  0  0  0  0  0  0  0  0
   19.4100    8.4820   54.6140 C   0  0  0  0  0  0  0  0  0  0  0  0
   18.4880    5.3790   54.7240 C   0  0  0  0  0  0  0  0  0  0  0  0
   19.2600    9.7810   54.1010 C   0  0  0  0  0  0  0  0  0  0  0  0
   17.1960    5.0810   53.9440 C   0  0  0  0  0  0  0  0  0  0  0  0
   18.0130   10.4130   54.1460 C   0  0  0  0  0  0  0  0  0  0  0  0
   16.9260    9.7700   54.7200 C   0  0  0  0  0  0  0  0  0  0  0  0
   15.7080   10.3710   54.7910 N   0  0  0  0  0  0  0  0  0  0  0  0
   18.3450    6.4730   55.7890 C   0  0  0  0  0  0  0  0  0  0  0  0
   20.3990   10.5090   53.4410 C   0  0  0  0  0  0  0  0  0  0  0  0
  2  1  1  0
  3  1  1  0
 20  2  1  0
  4  3  1  0
  5  4  1  0
  6  5  1  0
  7  6  1  0
  8  6  1  0
 10  6  1  0
 18  9  1  0
 24  9  1  0
 11 10  2  0
 16 10  1  0
 12 11  1  0
 13 12  2  0
 14 13  1  0
 15 13  1  0
 16 15  2  0
 19 17  2  0
 26 17  1  0
 20 18  1  0
 21 19  1  0
 28 19  1  0
 22 20  1  0
 23 21  2  0
 24 22  1  0
 28 22  1  0
 25 23  1  0
 29 23  1  0
 26 25  2  0
 27 26  1  0
A    1
C1
A    2
O1
A    3
C2
A    4
N2
A    5
C3
A    6
C4
A    7
F5
A    8
F6
A    9
N1'
A   10
C11
A   11
C12
A   12
C13
A   13
C14
A   14
F14
A   15
C15
A   16
C16
A   17
N1A
A   18
C2'
A   19
C2A
A   20
C3'
A   21
C3A
A   22
C4'
A   23
C4A
A   24
C5'
A   25
C5A
A   26
C6A
A   27
N6A
A   28
C7A
A   29
C8A
M  END
>  <Id>  (44) 
3NLY_3XC_B_800

>  <ChainId>  (44) 
B

>  <AsymId>  (44) 
K

>  <SeqNum>  (44) 
800

>  <Name>  (44) 
6-{[(3R,4R)-4-(2-{[2,2-difluoro-2-(4-fluorophenyl)ethyl]amino}ethoxy)pyrrolidin-3-yl]methyl}-4-methylpyridin-2-amine

>  <SystematicName>  (44) 
6-[[(3R,4R)-4-[2-[[2,2-difluoro-2-(4-fluorophenyl)ethyl]amino]ethoxy]pyrrolidin-3-yl]methyl]-4-methyl-pyridin-2-amine

>  <Synonyms>  (44) 


>  <Type>  (44) 
NON-POLYMER

>  <Formula>  (44) 
C21 H27 F3 N4 O

>  <ObservedFormula>  (44) 
C21 F3 N4 O

>  <MolecularWeight>  (44) 
408.46

>  <ModifiedDate>  (44) 
2011-06-04

>  <Parent>  (44) 


>  <OneLetterCode>  (44) 


>  <SubcomponentList>  (44) 


>  <AmbiguousFlag>  (44) 
N

>  <InsertionCode>  (44) 


>  <InstanceId>  (44) 
3NLY_3XC_B_800

>  <ChemCompId>  (44) 
3XC

>  <PdbId>  (44) 
3NLY

>  <ResidueNumber>  (44) 
800

>  <InChI>  (44) 
InChI=1S/C21H27F3N4O/c1-14-8-18(28-20(25)9-14)10-15-11-27-12-19(15)29-7-6-26-13-21(23,24)16-2-4-17(22)5-3-16/h2-5,8-9,15,19,26-27H,6-7,10-13H2,1H3,(H2,25,28)/t15-,19+/m1/s1

>  <InChIKey>  (44) 
IFVHOVCZGYECQL-BEFAXECRSA-N

>  <SMILES>  (44) 
Cc1cc(nc(c1)N)C[C@@H]2CNC[C@@H]2OCCNCC(c3ccc(cc3)F)(F)F

>  <MissingHeavyAtoms>  (44) 
0

>  <Model>  (44) 
1

>  <AltIds>  (44) 


>  <pKI>  (44) 
6.8

>  <ChemblID>  (44) 
CHEMBL1614783

>  <standardized_canonical_smiles>  (44) 
Cc1cc(N)nc(C[C@@H]2CNC[C@@H]2OCCNCC(F)(F)c2ccc(F)cc2)c1

$$$$
3NLX_3XB_B_800
     RDKit          3D

 29 31  0  0  0  0  0  0  0  0999 V2000
   18.1620    2.4220   57.2010 C   0  0  0  0  0  0  0  0  0  0  0  0
   17.8380    3.5750   56.4300 O   0  0  0  0  0  0  0  0  0  0  0  0
   16.9960    2.1450   58.1370 C   0  0  0  0  0  0  0  0  0  0  0  0
   15.8540    1.5260   57.4690 N   0  0  0  0  0  0  0  0  0  0  0  0
   14.5530    1.5330   58.1110 C   0  0  0  0  0  0  0  0  0  0  0  0
   14.4420    0.4920   59.2310 C   0  0  0  0  0  0  0  0  0  0  0  0
   15.0280    0.9260   60.3360 F   0  0  0  0  0  0  0  0  0  0  0  0
   15.0370   -0.6500   58.9150 F   0  0  0  0  0  0  0  0  0  0  0  0
   17.5050    3.7410   53.5470 N   0  0  0  0  0  0  0  0  0  0  0  0
   12.9820    0.2550   59.5350 C   0  0  0  0  0  0  0  0  0  0  0  0
   12.4130    0.8980   60.6230 C   0  0  0  0  0  0  0  0  0  0  0  0
   11.0620    0.7080   60.9150 C   0  0  0  0  0  0  0  0  0  0  0  0
   10.5310    1.3520   61.9730 F   0  0  0  0  0  0  0  0  0  0  0  0
   10.2960   -0.1570   60.1430 C   0  0  0  0  0  0  0  0  0  0  0  0
   10.8560   -0.8110   59.0430 C   0  0  0  0  0  0  0  0  0  0  0  0
   12.2060   -0.6010   58.7440 C   0  0  0  0  0  0  0  0  0  0  0  0
   17.0750    8.4230   55.4020 N   0  0  0  0  0  0  0  0  0  0  0  0
   18.5960    3.0430   54.2030 C   0  0  0  0  0  0  0  0  0  0  0  0
   18.2650    7.7700   55.3680 C   0  0  0  0  0  0  0  0  0  0  0  0
   18.8230    3.8990   55.4580 C   0  0  0  0  0  0  0  0  0  0  0  0
   19.3650    8.3880   54.7810 C   0  0  0  0  0  0  0  0  0  0  0  0
   18.5810    5.3020   54.9300 C   0  0  0  0  0  0  0  0  0  0  0  0
   19.2090    9.6580   54.2090 C   0  0  0  0  0  0  0  0  0  0  0  0
   17.3450    5.1050   54.0460 C   0  0  0  0  0  0  0  0  0  0  0  0
   17.9560   10.3100   54.2560 C   0  0  0  0  0  0  0  0  0  0  0  0
   16.8800    9.6500   54.8480 C   0  0  0  0  0  0  0  0  0  0  0  0
   15.6600   10.2530   54.9190 N   0  0  0  0  0  0  0  0  0  0  0  0
   18.3900    6.3880   56.0010 C   0  0  0  0  0  0  0  0  0  0  0  0
   20.4070   10.3250   53.5670 C   0  0  0  0  0  0  0  0  0  0  0  0
  2  1  1  0
  3  1  1  0
 20  2  1  0
  4  3  1  0
  5  4  1  0
  6  5  1  0
  7  6  1  0
  8  6  1  0
 10  6  1  0
 18  9  1  0
 24  9  1  0
 11 10  2  0
 16 10  1  0
 12 11  1  0
 13 12  1  0
 14 12  2  0
 15 14  1  0
 16 15  2  0
 19 17  2  0
 26 17  1  0
 20 18  1  0
 21 19  1  0
 28 19  1  0
 22 20  1  0
 23 21  2  0
 24 22  1  0
 28 22  1  0
 25 23  1  0
 29 23  1  0
 26 25  2  0
 27 26  1  0
A    1
C1
A    2
O1
A    3
C2
A    4
N2
A    5
C3
A    6
C4
A    7
F5
A    8
F6
A    9
N1'
A   10
C11
A   11
C12
A   12
C13
A   13
F13
A   14
C14
A   15
C15
A   16
C16
A   17
N1A
A   18
C2'
A   19
C2A
A   20
C3'
A   21
C3A
A   22
C4'
A   23
C4A
A   24
C5'
A   25
C5A
A   26
C6A
A   27
N6A
A   28
C7A
A   29
C8A
M  END
>  <Id>  (45) 
3NLX_3XB_B_800

>  <ChainId>  (45) 
B

>  <AsymId>  (45) 
K

>  <SeqNum>  (45) 
800

>  <Name>  (45) 
6-{[(3R,4R)-4-(2-{[2,2-difluoro-2-(3-fluorophenyl)ethyl]amino}ethoxy)pyrrolidin-3-yl]methyl}-4-methylpyridin-2-amine

>  <SystematicName>  (45) 
6-[[(3R,4R)-4-[2-[[2,2-difluoro-2-(3-fluorophenyl)ethyl]amino]ethoxy]pyrrolidin-3-yl]methyl]-4-methyl-pyridin-2-amine

>  <Synonyms>  (45) 


>  <Type>  (45) 
NON-POLYMER

>  <Formula>  (45) 
C21 H27 F3 N4 O

>  <ObservedFormula>  (45) 
C21 F3 N4 O

>  <MolecularWeight>  (45) 
408.46

>  <ModifiedDate>  (45) 
2011-06-04

>  <Parent>  (45) 


>  <OneLetterCode>  (45) 


>  <SubcomponentList>  (45) 


>  <AmbiguousFlag>  (45) 
N

>  <InsertionCode>  (45) 


>  <InstanceId>  (45) 
3NLX_3XB_B_800

>  <ChemCompId>  (45) 
3XB

>  <PdbId>  (45) 
3NLX

>  <ResidueNumber>  (45) 
800

>  <InChI>  (45) 
InChI=1S/C21H27F3N4O/c1-14-7-18(28-20(25)8-14)9-15-11-27-12-19(15)29-6-5-26-13-21(23,24)16-3-2-4-17(22)10-16/h2-4,7-8,10,15,19,26-27H,5-6,9,11-13H2,1H3,(H2,25,28)/t15-,19+/m1/s1

>  <InChIKey>  (45) 
IRAITVAESBBILD-BEFAXECRSA-N

>  <SMILES>  (45) 
Cc1cc(nc(c1)N)C[C@@H]2CNC[C@@H]2OCCNCC(c3cccc(c3)F)(F)F

>  <MissingHeavyAtoms>  (45) 
0

>  <Model>  (45) 
1

>  <AltIds>  (45) 


>  <pKI>  (45) 
6.96

>  <ChemblID>  (45) 
CHEMBL1614782

>  <standardized_canonical_smiles>  (45) 
Cc1cc(N)nc(C[C@@H]2CNC[C@@H]2OCCNCC(F)(F)c2cccc(F)c2)c1

$$$$
3PNE_8AX_B_800
     RDKit          3D

 29 31  0  0  0  0  0  0  0  0999 V2000
   17.0560    8.4670   55.3030 N   0  0  0  0  0  0  0  0  0  0  0  0
   16.9190    9.7040   54.7570 C   0  0  0  0  0  0  0  0  0  0  0  0
   15.7150   10.3270   54.8060 N   0  0  0  0  0  0  0  0  0  0  0  0
   18.0200   10.3230   54.1570 C   0  0  0  0  0  0  0  0  0  0  0  0
   19.2510    9.6610   54.1170 C   0  0  0  0  0  0  0  0  0  0  0  0
   19.3610    8.3820   54.6880 C   0  0  0  0  0  0  0  0  0  0  0  0
   18.2280    7.7950   55.2690 C   0  0  0  0  0  0  0  0  0  0  0  0
   20.4270   10.3340   53.4510 C   0  0  0  0  0  0  0  0  0  0  0  0
   18.2500    6.4110   55.9090 C   0  0  0  0  0  0  0  0  0  0  0  0
   17.8180    3.4920   56.3550 O   0  0  0  0  0  0  0  0  0  0  0  0
   17.4460    3.6500   53.5080 N   0  0  0  0  0  0  0  0  0  0  0  0
   18.2990    2.5970   57.3400 C   0  0  0  0  0  0  0  0  0  0  0  0
   17.0640    2.2710   58.1610 C   0  0  0  0  0  0  0  0  0  0  0  0
   16.0930    1.4860   57.4110 N   0  0  0  0  0  0  0  0  0  0  0  0
   14.7180    1.4450   57.8660 C   0  0  0  0  0  0  0  0  0  0  0  0
   14.5420    0.4060   58.9750 C   0  0  0  0  0  0  0  0  0  0  0  0
   15.0390    0.8740   60.1190 F   0  0  0  0  0  0  0  0  0  0  0  0
   15.2150   -0.7050   58.7140 F   0  0  0  0  0  0  0  0  0  0  0  0
   17.1830    4.9930   54.0230 C   0  0  0  0  0  0  0  0  0  0  0  0
   13.0750    0.0900   59.1860 C   0  0  0  0  0  0  0  0  0  0  0  0
   12.3580    0.7400   60.1830 C   0  0  0  0  0  0  0  0  0  0  0  0
   11.0140    0.4180   60.3670 C   0  0  0  0  0  0  0  0  0  0  0  0
   10.1070    1.2550   61.6420 Cl  0  0  0  0  0  0  0  0  0  0  0  0
   10.3610   -0.5440   59.6050 C   0  0  0  0  0  0  0  0  0  0  0  0
   11.0630   -1.1930   58.6010 C   0  0  0  0  0  0  0  0  0  0  0  0
   12.4090   -0.8720   58.4150 C   0  0  0  0  0  0  0  0  0  0  0  0
   18.4400    5.2950   54.8640 C   0  0  0  0  0  0  0  0  0  0  0  0
   18.7860    3.9090   55.4010 C   0  0  0  0  0  0  0  0  0  0  0  0
   18.6010    3.0360   54.1590 C   0  0  0  0  0  0  0  0  0  0  0  0
  2  1  2  0
  7  1  1  0
  3  2  1  0
  4  2  1  0
  5  4  2  0
  6  5  1  0
  8  5  1  0
  7  6  2  0
  9  7  1  0
 27  9  1  0
 12 10  1  0
 28 10  1  0
 19 11  1  0
 29 11  1  0
 13 12  1  0
 14 13  1  0
 15 14  1  0
 16 15  1  0
 17 16  1  0
 18 16  1  0
 20 16  1  0
 27 19  1  0
 21 20  2  0
 26 20  1  0
 22 21  1  0
 23 22  1  0
 24 22  2  0
 25 24  1  0
 26 25  2  0
 28 27  1  0
 29 28  1  0
A    1
N01
A    2
C02
A    3
N02
A    4
C03
A    5
C04
A    6
C05
A    7
C06
A    8
C07
A    9
C08
A   10
O09
A   11
N1'
A   12
C10
A   13
C11
A   14
N12
A   15
C13
A   16
C14
A   17
F15
A   18
F16
A   19
C2'
A   20
C21
A   21
C22
A   22
C23
A   23
CL23
A   24
C24
A   25
C25
A   26
C26
A   27
C3'
A   28
C4'
A   29
C5'
M  END
>  <Id>  (46) 
3PNE_8AX_B_800

>  <ChainId>  (46) 
B

>  <AsymId>  (46) 
K

>  <SeqNum>  (46) 
800

>  <Name>  (46) 
6-{[(3R,4R)-4-(2-{[2-(3-chlorophenyl)-2,2-difluoroethyl]amino}ethoxy)pyrrolidin-3-yl]methyl}-4-methylpyridin-2-amine

>  <SystematicName>  (46) 
6-[[(3R,4R)-4-[2-[[2-(3-chlorophenyl)-2,2-difluoro-ethyl]amino]ethoxy]pyrrolidin-3-yl]methyl]-4-methyl-pyridin-2-amine

>  <Synonyms>  (46) 


>  <Type>  (46) 
NON-POLYMER

>  <Formula>  (46) 
C21 H27 Cl F2 N4 O

>  <ObservedFormula>  (46) 
C21 F2 Cl N4 O

>  <MolecularWeight>  (46) 
424.915

>  <ModifiedDate>  (46) 
2011-10-28

>  <Parent>  (46) 


>  <OneLetterCode>  (46) 


>  <SubcomponentList>  (46) 


>  <AmbiguousFlag>  (46) 
N

>  <InsertionCode>  (46) 


>  <InstanceId>  (46) 
3PNE_8AX_B_800

>  <ChemCompId>  (46) 
8AX

>  <PdbId>  (46) 
3PNE

>  <ResidueNumber>  (46) 
800

>  <InChI>  (46) 
InChI=1S/C21H27ClF2N4O/c1-14-7-18(28-20(25)8-14)9-15-11-27-12-19(15)29-6-5-26-13-21(23,24)16-3-2-4-17(22)10-16/h2-4,7-8,10,15,19,26-27H,5-6,9,11-13H2,1H3,(H2,25,28)/t15-,19+/m1/s1

>  <InChIKey>  (46) 
UAYPWJGHCQAPDA-BEFAXECRSA-N

>  <SMILES>  (46) 
Cc1cc(nc(c1)N)C[C@@H]2CNC[C@@H]2OCCNCC(c3cccc(c3)Cl)(F)F

>  <MissingHeavyAtoms>  (46) 
0

>  <Model>  (46) 
1

>  <AltIds>  (46) 


>  <pKI>  (46) 
7.07

>  <ChemblID>  (46) 
CHEMBL1824855

>  <standardized_canonical_smiles>  (46) 
Cc1cc(N)nc(C[C@@H]2CNC[C@@H]2OCCNCC(F)(F)c2cccc(Cl)c2)c1

$$$$
3PNF_8BX_B_800
     RDKit          3D

 29 31  0  0  0  0  0  0  0  0999 V2000
   16.9600    8.3410   55.3950 N   0  0  0  0  0  0  0  0  0  0  0  0
   16.8520    9.5940   54.8480 C   0  0  0  0  0  0  0  0  0  0  0  0
   15.6840   10.3010   54.9000 N   0  0  0  0  0  0  0  0  0  0  0  0
   17.9720   10.1570   54.2260 C   0  0  0  0  0  0  0  0  0  0  0  0
   19.1750    9.4390   54.1650 C   0  0  0  0  0  0  0  0  0  0  0  0
   19.2480    8.1640   54.7350 C   0  0  0  0  0  0  0  0  0  0  0  0
   18.1140    7.6140   55.3410 C   0  0  0  0  0  0  0  0  0  0  0  0
   20.3730   10.0560   53.4860 C   0  0  0  0  0  0  0  0  0  0  0  0
   18.1560    6.2200   55.9640 C   0  0  0  0  0  0  0  0  0  0  0  0
   17.7610    3.4730   56.5190 O   0  0  0  0  0  0  0  0  0  0  0  0
   17.5400    3.4790   53.4810 N   0  0  0  0  0  0  0  0  0  0  0  0
   17.7180    2.1870   57.1450 C   0  0  0  0  0  0  0  0  0  0  0  0
   16.4980    2.1320   58.0500 C   0  0  0  0  0  0  0  0  0  0  0  0
   15.3670    1.3380   57.5950 N   0  0  0  0  0  0  0  0  0  0  0  0
   14.5550    0.6350   58.5910 C   0  0  0  0  0  0  0  0  0  0  0  0
   13.1560    1.2720   58.7330 C   0  0  0  0  0  0  0  0  0  0  0  0
   13.0840    1.9300   59.8700 F   0  0  0  0  0  0  0  0  0  0  0  0
   12.9780    2.0840   57.6890 F   0  0  0  0  0  0  0  0  0  0  0  0
   17.2820    4.8400   53.9600 C   0  0  0  0  0  0  0  0  0  0  0  0
   12.0310    0.2780   58.8900 C   0  0  0  0  0  0  0  0  0  0  0  0
   11.0670    0.3150   59.9240 C   0  0  0  0  0  0  0  0  0  0  0  0
   10.9300    1.5090   61.2570 Cl  0  0  0  0  0  0  0  0  0  0  0  0
   10.0870   -0.6470   59.9780 C   0  0  0  0  0  0  0  0  0  0  0  0
   10.0600   -1.6500   59.0250 C   0  0  0  0  0  0  0  0  0  0  0  0
   10.9900   -1.6880   58.0110 C   0  0  0  0  0  0  0  0  0  0  0  0
   11.9700   -0.7260   57.9510 C   0  0  0  0  0  0  0  0  0  0  0  0
   18.4450    5.1200   54.9230 C   0  0  0  0  0  0  0  0  0  0  0  0
   18.7350    3.7370   55.5050 C   0  0  0  0  0  0  0  0  0  0  0  0
   18.5490    2.8070   54.2870 C   0  0  0  0  0  0  0  0  0  0  0  0
  2  1  2  0
  7  1  1  0
  3  2  1  0
  4  2  1  0
  5  4  2  0
  6  5  1  0
  8  5  1  0
  7  6  2  0
  9  7  1  0
 27  9  1  0
 12 10  1  0
 28 10  1  0
 19 11  1  0
 29 11  1  0
 13 12  1  0
 14 13  1  0
 15 14  1  0
 16 15  1  0
 17 16  1  0
 18 16  1  0
 20 16  1  0
 27 19  1  0
 21 20  2  0
 26 20  1  0
 22 21  1  0
 23 21  1  0
 24 23  2  0
 25 24  1  0
 26 25  2  0
 28 27  1  0
 29 28  1  0
A    1
N01
A    2
C02
A    3
N02
A    4
C03
A    5
C04
A    6
C05
A    7
C06
A    8
C07
A    9
C08
A   10
O09
A   11
N1'
A   12
C10
A   13
C11
A   14
N12
A   15
C13
A   16
C14
A   17
F15
A   18
F16
A   19
C2'
A   20
C21
A   21
C22
A   22
CL22
A   23
C23
A   24
C24
A   25
C25
A   26
C26
A   27
C3'
A   28
C4'
A   29
C5'
M  END
>  <Id>  (47) 
3PNF_8BX_B_800

>  <ChainId>  (47) 
B

>  <AsymId>  (47) 
K

>  <SeqNum>  (47) 
800

>  <Name>  (47) 
6-{[(3R,4R)-4-(2-{[2-(2-chlorophenyl)-2,2-difluoroethyl]amino}ethoxy)pyrrolidin-3-yl]methyl}-4-methylpyridin-2-amine

>  <SystematicName>  (47) 
6-[[(3R,4R)-4-[2-[[2-(2-chlorophenyl)-2,2-difluoro-ethyl]amino]ethoxy]pyrrolidin-3-yl]methyl]-4-methyl-pyridin-2-amine

>  <Synonyms>  (47) 


>  <Type>  (47) 
NON-POLYMER

>  <Formula>  (47) 
C21 H27 Cl F2 N4 O

>  <ObservedFormula>  (47) 
C21 F2 Cl N4 O

>  <MolecularWeight>  (47) 
424.915

>  <ModifiedDate>  (47) 
2011-10-28

>  <Parent>  (47) 


>  <OneLetterCode>  (47) 


>  <SubcomponentList>  (47) 


>  <AmbiguousFlag>  (47) 
N

>  <InsertionCode>  (47) 


>  <InstanceId>  (47) 
3PNF_8BX_B_800

>  <ChemCompId>  (47) 
8BX

>  <PdbId>  (47) 
3PNF

>  <ResidueNumber>  (47) 
800

>  <InChI>  (47) 
InChI=1S/C21H27ClF2N4O/c1-14-8-16(28-20(25)9-14)10-15-11-27-12-19(15)29-7-6-26-13-21(23,24)17-4-2-3-5-18(17)22/h2-5,8-9,15,19,26-27H,6-7,10-13H2,1H3,(H2,25,28)/t15-,19+/m1/s1

>  <InChIKey>  (47) 
JVSYUOBMDVYGPZ-BEFAXECRSA-N

>  <SMILES>  (47) 
Cc1cc(nc(c1)N)C[C@@H]2CNC[C@@H]2OCCNCC(c3ccccc3Cl)(F)F

>  <MissingHeavyAtoms>  (47) 
0

>  <Model>  (47) 
1

>  <AltIds>  (47) 


>  <pKI>  (47) 
6.77

>  <ChemblID>  (47) 
CHEMBL1824856

>  <standardized_canonical_smiles>  (47) 
Cc1cc(N)nc(C[C@@H]2CNC[C@@H]2OCCNCC(F)(F)c2ccccc2Cl)c1

$$$$
3SVP_JK5_B_800
     RDKit          3D

 30 32  0  0  0  0  0  0  0  0999 V2000
   17.0800    8.3650   55.3610 N   0  0  0  0  0  0  0  0  0  0  0  0
   16.9150    9.6150   54.8300 C   0  0  0  0  0  0  0  0  0  0  0  0
   15.6810   10.2060   54.8850 N   0  0  0  0  0  0  0  0  0  0  0  0
   18.0360   10.2670   54.2670 C   0  0  0  0  0  0  0  0  0  0  0  0
   19.2830    9.6250   54.2520 C   0  0  0  0  0  0  0  0  0  0  0  0
   19.4120    8.3430   54.8060 C   0  0  0  0  0  0  0  0  0  0  0  0
   18.2830    7.7230   55.3600 C   0  0  0  0  0  0  0  0  0  0  0  0
   20.5100   10.2770   53.6570 C   0  0  0  0  0  0  0  0  0  0  0  0
   18.3790    6.3350   55.9690 C   0  0  0  0  0  0  0  0  0  0  0  0
   18.1740    3.4140   56.4570 O   0  0  0  0  0  0  0  0  0  0  0  0
   17.8430    3.4230   53.7130 N   0  0  0  0  0  0  0  0  0  0  0  0
   18.5790    2.7290   57.6300 C   0  0  0  0  0  0  0  0  0  0  0  0
   17.2350    2.4400   58.2970 C   0  0  0  0  0  0  0  0  0  0  0  0
   16.3150    1.6410   57.4910 N   0  0  0  0  0  0  0  0  0  0  0  0
   14.8830    1.5420   57.7900 C   0  0  0  0  0  0  0  0  0  0  0  0
   14.6200    0.5020   58.8700 C   0  0  0  0  0  0  0  0  0  0  0  0
   14.9330    1.0500   60.0410 F   0  0  0  0  0  0  0  0  0  0  0  0
   15.4240   -0.5720   58.7370 F   0  0  0  0  0  0  0  0  0  0  0  0
   19.0800    2.9870   54.3490 C   0  0  0  0  0  0  0  0  0  0  0  0
   13.1530    0.0800   59.0140 C   0  0  0  0  0  0  0  0  0  0  0  0
   12.5360   -0.8760   58.2030 C   0  0  0  0  0  0  0  0  0  0  0  0
   11.2140   -1.2780   58.4130 C   0  0  0  0  0  0  0  0  0  0  0  0
   10.5670   -2.1910   57.6920 F   0  0  0  0  0  0  0  0  0  0  0  0
   10.5030   -0.7340   59.4050 C   0  0  0  0  0  0  0  0  0  0  0  0
   11.0870    0.2080   60.1720 C   0  0  0  0  0  0  0  0  0  0  0  0
   10.0380    0.8100   61.4120 Cl  0  0  0  0  0  0  0  0  0  0  0  0
   12.3870    0.6360   60.0270 C   0  0  0  0  0  0  0  0  0  0  0  0
   19.1720    3.9240   55.5530 C   0  0  0  0  0  0  0  0  0  0  0  0
   18.6950    5.2370   54.9420 C   0  0  0  0  0  0  0  0  0  0  0  0
   17.5070    4.8180   54.0440 C   0  0  0  0  0  0  0  0  0  0  0  0
  2  1  2  0
  7  1  1  0
  3  2  1  0
  4  2  1  0
  5  4  2  0
  6  5  1  0
  8  5  1  0
  7  6  2  0
  9  7  1  0
 29  9  1  0
 12 10  1  0
 28 10  1  0
 19 11  1  0
 30 11  1  0
 13 12  1  0
 14 13  1  0
 15 14  1  0
 16 15  1  0
 17 16  1  0
 18 16  1  0
 20 16  1  0
 28 19  1  0
 21 20  2  0
 27 20  1  0
 22 21  1  0
 23 22  1  0
 24 22  2  0
 25 24  1  0
 26 25  1  0
 27 25  2  0
 29 28  1  0
 30 29  1  0
A    1
N01
A    2
C02
A    3
N02
A    4
C03
A    5
C04
A    6
C05
A    7
C06
A    8
C07
A    9
C08
A   10
O09
A   11
N1'
A   12
C10
A   13
C11
A   14
N12
A   15
C13
A   16
C14
A   17
F15
A   18
F16
A   19
C2'
A   20
C21
A   21
C22
A   22
C23
A   23
F23
A   24
C24
A   25
C25
A   26
CL25
A   27
C26
A   28
C3'
A   29
C4'
A   30
C5'
M  END
>  <Id>  (48) 
3SVP_JK5_B_800

>  <ChainId>  (48) 
B

>  <AsymId>  (48) 
J

>  <SeqNum>  (48) 
800

>  <Name>  (48) 
6-{[(3R,4R)-4-(2-{[2-(3-chloro-5-fluorophenyl)-2,2-difluoroethyl]amino}ethoxy)pyrrolidin-3-yl]methyl}-4-methylpyridin-2-amine

>  <SystematicName>  (48) 
6-[[(3R,4R)-4-[2-[[2-(3-chloranyl-5-fluoranyl-phenyl)-2,2-bis(fluoranyl)ethyl]amino]ethoxy]pyrrolidin-3-yl]methyl]-4-methyl-pyridin-2-amine

>  <Synonyms>  (48) 


>  <Type>  (48) 
NON-POLYMER

>  <Formula>  (48) 
C21 H26 Cl F3 N4 O

>  <ObservedFormula>  (48) 
C21 F3 Cl N4 O

>  <MolecularWeight>  (48) 
442.906

>  <ModifiedDate>  (48) 
2011-09-23

>  <Parent>  (48) 


>  <OneLetterCode>  (48) 


>  <SubcomponentList>  (48) 


>  <AmbiguousFlag>  (48) 
N

>  <InsertionCode>  (48) 


>  <InstanceId>  (48) 
3SVP_JK5_B_800

>  <ChemCompId>  (48) 
JK5

>  <PdbId>  (48) 
3SVP

>  <ResidueNumber>  (48) 
800

>  <InChI>  (48) 
InChI=1S/C21H26ClF3N4O/c1-13-4-18(29-20(26)5-13)6-14-10-28-11-19(14)30-3-2-27-12-21(24,25)15-7-16(22)9-17(23)8-15/h4-5,7-9,14,19,27-28H,2-3,6,10-12H2,1H3,(H2,26,29)/t14-,19+/m1/s1

>  <InChIKey>  (48) 
WCMZHGFWPJYQKM-KUHUBIRLSA-N

>  <SMILES>  (48) 
Cc1cc(nc(c1)N)C[C@@H]2CNC[C@@H]2OCCNCC(c3cc(cc(c3)Cl)F)(F)F

>  <MissingHeavyAtoms>  (48) 
0

>  <Model>  (48) 
1

>  <AltIds>  (48) 


>  <pKI>  (48) 
7.11

>  <ChemblID>  (48) 
CHEMBL1824858

>  <standardized_canonical_smiles>  (48) 
Cc1cc(N)nc(C[C@@H]2CNC[C@@H]2OCCNCC(F)(F)c2cc(F)cc(Cl)c2)c1

$$$$
3SVQ_JK4_B_800
     RDKit          3D

 30 32  0  0  0  0  0  0  0  0999 V2000
   16.9960    8.4320   55.4520 N   0  0  0  0  0  0  0  0  0  0  0  0
   16.9450    9.6780   54.9130 C   0  0  0  0  0  0  0  0  0  0  0  0
   15.7560   10.3640   54.8880 N   0  0  0  0  0  0  0  0  0  0  0  0
   18.1430   10.2270   54.4160 C   0  0  0  0  0  0  0  0  0  0  0  0
   19.3410    9.4810   54.4680 C   0  0  0  0  0  0  0  0  0  0  0  0
   19.3480    8.1970   55.0270 C   0  0  0  0  0  0  0  0  0  0  0  0
   18.1380    7.6860   55.5280 C   0  0  0  0  0  0  0  0  0  0  0  0
   20.6220   10.0640   53.9200 C   0  0  0  0  0  0  0  0  0  0  0  0
   18.0590    6.2980   56.1500 C   0  0  0  0  0  0  0  0  0  0  0  0
   17.8790    3.4690   56.7200 O   0  0  0  0  0  0  0  0  0  0  0  0
   17.6200    3.4820   53.7610 N   0  0  0  0  0  0  0  0  0  0  0  0
   18.2570    2.4720   57.6640 C   0  0  0  0  0  0  0  0  0  0  0  0
   17.0660    2.1000   58.5570 C   0  0  0  0  0  0  0  0  0  0  0  0
   15.7660    1.8520   57.9240 N   0  0  0  0  0  0  0  0  0  0  0  0
   14.7470    1.1080   58.6560 C   0  0  0  0  0  0  0  0  0  0  0  0
   13.3450    1.4140   58.0890 C   0  0  0  0  0  0  0  0  0  0  0  0
   13.3430    1.1240   56.7980 F   0  0  0  0  0  0  0  0  0  0  0  0
   13.0990    2.7160   58.1770 F   0  0  0  0  0  0  0  0  0  0  0  0
   18.7300    2.9230   54.5200 C   0  0  0  0  0  0  0  0  0  0  0  0
   12.2560    0.5800   58.7730 C   0  0  0  0  0  0  0  0  0  0  0  0
   11.6220    1.0050   59.9270 C   0  0  0  0  0  0  0  0  0  0  0  0
   11.8520    2.1500   60.5700 F   0  0  0  0  0  0  0  0  0  0  0  0
   10.6690    0.2700   60.5260 C   0  0  0  0  0  0  0  0  0  0  0  0
   10.2010    0.8530   61.6280 F   0  0  0  0  0  0  0  0  0  0  0  0
   10.2610   -0.9500   60.0010 C   0  0  0  0  0  0  0  0  0  0  0  0
   10.8500   -1.4340   58.8410 C   0  0  0  0  0  0  0  0  0  0  0  0
   11.8460   -0.6490   58.2570 C   0  0  0  0  0  0  0  0  0  0  0  0
   18.8540    3.8570   55.7290 C   0  0  0  0  0  0  0  0  0  0  0  0
   18.4560    5.2070   55.1400 C   0  0  0  0  0  0  0  0  0  0  0  0
   17.3340    4.8610   54.1580 C   0  0  0  0  0  0  0  0  0  0  0  0
  2  1  2  0
  7  1  1  0
  3  2  1  0
  4  2  1  0
  5  4  2  0
  6  5  1  0
  8  5  1  0
  7  6  2  0
  9  7  1  0
 29  9  1  0
 12 10  1  0
 28 10  1  0
 19 11  1  0
 30 11  1  0
 13 12  1  0
 14 13  1  0
 15 14  1  0
 16 15  1  0
 17 16  1  0
 18 16  1  0
 20 16  1  0
 28 19  1  0
 21 20  2  0
 27 20  1  0
 22 21  1  0
 23 21  1  0
 24 23  1  0
 25 23  2  0
 26 25  1  0
 27 26  2  0
 29 28  1  0
 30 29  1  0
A    1
N01
A    2
C02
A    3
N02
A    4
C03
A    5
C04
A    6
C05
A    7
C06
A    8
C07
A    9
C08
A   10
O09
A   11
N1'
A   12
C10
A   13
C11
A   14
N12
A   15
C13
A   16
C14
A   17
F15
A   18
F16
A   19
C2'
A   20
C21
A   21
C22
A   22
F22
A   23
C23
A   24
F23
A   25
C24
A   26
C25
A   27
C26
A   28
C3'
A   29
C4'
A   30
C5'
M  END
>  <Id>  (49) 
3SVQ_JK4_B_800

>  <ChainId>  (49) 
B

>  <AsymId>  (49) 
J

>  <SeqNum>  (49) 
800

>  <Name>  (49) 
6-{[(3R,4R)-4-(2-{[2-(2,3-difluorophenyl)-2,2-difluoroethyl]amino}ethoxy)pyrrolidin-3-yl]methyl}-4-methylpyridin-2-amine

>  <SystematicName>  (49) 
6-[[(3R,4R)-4-[2-[[2-[2,3-bis(fluoranyl)phenyl]-2,2-bis(fluoranyl)ethyl]amino]ethoxy]pyrrolidin-3-yl]methyl]-4-methyl-pyridin-2-amine

>  <Synonyms>  (49) 


>  <Type>  (49) 
NON-POLYMER

>  <Formula>  (49) 
C21 H26 F4 N4 O

>  <ObservedFormula>  (49) 
C21 F4 N4 O

>  <MolecularWeight>  (49) 
426.451

>  <ModifiedDate>  (49) 
2011-09-23

>  <Parent>  (49) 


>  <OneLetterCode>  (49) 


>  <SubcomponentList>  (49) 


>  <AmbiguousFlag>  (49) 
N

>  <InsertionCode>  (49) 


>  <InstanceId>  (49) 
3SVQ_JK4_B_800

>  <ChemCompId>  (49) 
JK4

>  <PdbId>  (49) 
3SVQ

>  <ResidueNumber>  (49) 
800

>  <InChI>  (49) 
InChI=1S/C21H26F4N4O/c1-13-7-15(29-19(26)8-13)9-14-10-28-11-18(14)30-6-5-27-12-21(24,25)16-3-2-4-17(22)20(16)23/h2-4,7-8,14,18,27-28H,5-6,9-12H2,1H3,(H2,26,29)/t14-,18+/m1/s1

>  <InChIKey>  (49) 
SGDIVHJKRFAKAS-KDOFPFPSSA-N

>  <SMILES>  (49) 
Cc1cc(nc(c1)N)C[C@@H]2CNC[C@@H]2OCCNCC(c3cccc(c3F)F)(F)F

>  <MissingHeavyAtoms>  (49) 
0

>  <Model>  (49) 
1

>  <AltIds>  (49) 


>  <pKI>  (49) 
6.74

>  <ChemblID>  (49) 
CHEMBL1824859

>  <standardized_canonical_smiles>  (49) 
Cc1cc(N)nc(C[C@@H]2CNC[C@@H]2OCCNCC(F)(F)c2cccc(F)c2F)c1

$$$$
3TYL_AXW_B_800
     RDKit          3D

 26 28  0  0  0  0  0  0  0  0999 V2000
   20.4780    5.4390   53.8770 F   0  0  0  0  0  0  0  0  0  0  0  0
   19.8820    6.6120   54.1640 C   0  0  0  0  0  0  0  0  0  0  0  0
   20.5650    7.8290   54.0620 C   0  0  0  0  0  0  0  0  0  0  0  0
   19.8970    9.0180   54.3750 C   0  0  0  0  0  0  0  0  0  0  0  0
   18.5620    9.0060   54.7820 C   0  0  0  0  0  0  0  0  0  0  0  0
   17.8490    7.8110   54.8990 C   0  0  0  0  0  0  0  0  0  0  0  0
   18.4610    6.5890   54.6090 C   0  0  0  0  0  0  0  0  0  0  0  0
   17.7480    5.2320   54.6830 C   0  0  0  0  0  0  0  0  0  0  0  0
   16.7810    5.0490   55.7580 N   0  0  0  0  0  0  0  0  0  0  0  0
   17.3230    5.0020   57.1080 C   0  0  0  0  0  0  0  0  0  0  0  0
   16.7890    3.8990   57.9840 C   0  0  0  0  0  0  0  0  0  0  0  0
   16.0970    2.8580   57.3130 O   0  0  0  0  0  0  0  0  0  0  0  0
   16.3760    1.5880   57.9230 C   0  0  0  0  0  0  0  0  0  0  0  0
   16.6820    0.5230   56.8400 C   0  0  0  0  0  0  0  0  0  0  0  0
   16.0400   -0.6780   57.3200 N   0  0  0  0  0  0  0  0  0  0  0  0
   15.4460   -0.5030   58.6570 C   0  0  0  0  0  0  0  0  0  0  0  0
   15.2110    1.0260   58.7220 C   0  0  0  0  0  0  0  0  0  0  0  0
   13.9000    1.4960   58.0950 C   0  0  0  0  0  0  0  0  0  0  0  0
   12.6880    0.8720   58.7660 C   0  0  0  0  0  0  0  0  0  0  0  0
   12.1870   -0.2990   58.3080 N   0  0  0  0  0  0  0  0  0  0  0  0
   11.1030   -0.8770   58.8900 C   0  0  0  0  0  0  0  0  0  0  0  0
   10.6350   -2.0610   58.4060 N   0  0  0  0  0  0  0  0  0  0  0  0
   10.5160   -0.2920   60.0330 C   0  0  0  0  0  0  0  0  0  0  0  0
   12.1210    1.4990   59.8800 C   0  0  0  0  0  0  0  0  0  0  0  0
   11.0190    0.9180   60.5090 C   0  0  0  0  0  0  0  0  0  0  0  0
   10.4020    1.6020   61.7090 C   0  0  0  0  0  0  0  0  0  0  0  0
  2  1  1  0
  3  2  2  0
  7  2  1  0
  4  3  1  0
  5  4  2  0
  6  5  1  0
  7  6  2  0
  8  7  1  0
  9  8  1  0
 10  9  1  0
 11 10  1  0
 12 11  1  0
 13 12  1  0
 14 13  1  0
 17 13  1  0
 15 14  1  0
 16 15  1  0
 17 16  1  0
 18 17  1  0
 19 18  1  0
 20 19  2  0
 24 19  1  0
 21 20  1  0
 22 21  1  0
 23 21  2  0
 25 23  1  0
 25 24  2  0
 26 25  1  0
A    1
F22
A    2
C22
A    3
C23
A    4
C24
A    5
C25
A    6
C26
A    7
C21
A    8
C13
A    9
N12
A   10
C11
A   11
C10
A   12
O09
A   13
C4'
A   14
C5'
A   15
N1'
A   16
C2'
A   17
C3'
A   18
C08
A   19
C06
A   20
N01
A   21
C02
A   22
N02
A   23
C03
A   24
C05
A   25
C04
A   26
C07
M  END
>  <Id>  (50) 
3TYL_AXW_B_800

>  <ChainId>  (50) 
B

>  <AsymId>  (50) 
K

>  <SeqNum>  (50) 
800

>  <Name>  (50) 
6-{[(3S,4S)-4-{2-[(2-fluorobenzyl)amino]ethoxy}pyrrolidin-3-yl]methyl}-4-methylpyridin-2-amine

>  <SystematicName>  (50) 
6-[[(3S,4S)-4-[2-[(2-fluorophenyl)methylamino]ethoxy]pyrrolidin-3-yl]methyl]-4-methyl-pyridin-2-amine

>  <Synonyms>  (50) 


>  <Type>  (50) 
NON-POLYMER

>  <Formula>  (50) 
C20 H27 F N4 O

>  <ObservedFormula>  (50) 
C20 F N4 O

>  <MolecularWeight>  (50) 
358.453

>  <ModifiedDate>  (50) 
2012-03-09

>  <Parent>  (50) 


>  <OneLetterCode>  (50) 


>  <SubcomponentList>  (50) 


>  <AmbiguousFlag>  (50) 
N

>  <InsertionCode>  (50) 


>  <InstanceId>  (50) 
3TYL_AXW_B_800

>  <ChemCompId>  (50) 
AXW

>  <PdbId>  (50) 
3TYL

>  <ResidueNumber>  (50) 
800

>  <InChI>  (50) 
InChI=1S/C20H27FN4O/c1-14-8-17(25-20(22)9-14)10-16-12-24-13-19(16)26-7-6-23-11-15-4-2-3-5-18(15)21/h2-5,8-9,16,19,23-24H,6-7,10-13H2,1H3,(H2,22,25)/t16-,19+/m0/s1

>  <InChIKey>  (50) 
PMZVISPCVPVOFN-QFBILLFUSA-N

>  <SMILES>  (50) 
Cc1cc(nc(c1)N)C[C@H]2CNC[C@H]2OCCNCc3ccccc3F

>  <MissingHeavyAtoms>  (50) 
0

>  <Model>  (50) 
1

>  <AltIds>  (50) 


>  <pKI>  (50) 
6.39

>  <ChemblID>  (50) 
CHEMBL1956738

>  <standardized_canonical_smiles>  (50) 
Cc1cc(N)nc(C[C@H]2CNC[C@H]2OCCNCc2ccccc2F)c1

$$$$
3TYM_08R_B_800
     RDKit          3D

 27 29  0  0  0  0  0  0  0  0999 V2000
   10.6600   -2.0590   58.3470 N   0  0  0  0  0  0  0  0  0  0  0  0
   11.0820   -0.8740   58.8500 C   0  0  0  0  0  0  0  0  0  0  0  0
   10.4850   -0.3290   59.9920 C   0  0  0  0  0  0  0  0  0  0  0  0
   10.9620    0.8930   60.4780 C   0  0  0  0  0  0  0  0  0  0  0  0
   10.3620    1.5690   61.6900 C   0  0  0  0  0  0  0  0  0  0  0  0
   12.0160    1.5150   59.8170 C   0  0  0  0  0  0  0  0  0  0  0  0
   12.1010   -0.2340   58.2310 N   0  0  0  0  0  0  0  0  0  0  0  0
   12.5910    0.9330   58.6880 C   0  0  0  0  0  0  0  0  0  0  0  0
   13.7680    1.6030   57.9760 C   0  0  0  0  0  0  0  0  0  0  0  0
   15.1290    1.1360   58.5380 C   0  0  0  0  0  0  0  0  0  0  0  0
   15.3300   -0.3790   58.4440 C   0  0  0  0  0  0  0  0  0  0  0  0
   16.0660   -0.5760   57.1870 N   0  0  0  0  0  0  0  0  0  0  0  0
   16.7060    0.6470   56.7510 C   0  0  0  0  0  0  0  0  0  0  0  0
   16.3200    1.7270   57.7900 C   0  0  0  0  0  0  0  0  0  0  0  0
   15.9900    2.9600   57.1340 O   0  0  0  0  0  0  0  0  0  0  0  0
   16.3360    4.1850   57.7770 C   0  0  0  0  0  0  0  0  0  0  0  0
   17.4470    4.9050   57.0310 C   0  0  0  0  0  0  0  0  0  0  0  0
   17.1880    5.0770   55.6040 N   0  0  0  0  0  0  0  0  0  0  0  0
   18.3510    5.2450   54.7290 C   0  0  0  0  0  0  0  0  0  0  0  0
   18.7780    6.6970   54.5390 C   0  0  0  0  0  0  0  0  0  0  0  0
   20.2210    7.0510   54.3770 C   0  0  0  0  0  0  0  0  0  0  0  0
   21.1860    6.0690   54.4140 O   0  0  0  0  0  0  0  0  0  0  0  0
   22.4910    6.2600   53.8510 C   0  0  0  0  0  0  0  0  0  0  0  0
   17.8370    7.7240   54.5040 C   0  0  0  0  0  0  0  0  0  0  0  0
   18.2280    9.0460   54.3210 C   0  0  0  0  0  0  0  0  0  0  0  0
   19.5770    9.3740   54.1740 C   0  0  0  0  0  0  0  0  0  0  0  0
   20.5690    8.3920   54.2050 C   0  0  0  0  0  0  0  0  0  0  0  0
  2  1  1  0
  3  2  2  0
  7  2  1  0
  4  3  1  0
  5  4  1  0
  6  4  2  0
  8  6  1  0
  8  7  2  0
  9  8  1  0
 10  9  1  0
 11 10  1  0
 14 10  1  0
 12 11  1  0
 13 12  1  0
 14 13  1  0
 15 14  1  0
 16 15  1  0
 17 16  1  0
 18 17  1  0
 19 18  1  0
 20 19  1  0
 21 20  2  0
 24 20  1  0
 22 21  1  0
 27 21  1  0
 23 22  1  0
 25 24  2  0
 26 25  1  0
 27 26  2  0
A    1
N02
A    2
C02
A    3
C03
A    4
C04
A    5
C07
A    6
C05
A    7
N01
A    8
C06
A    9
C08
A   10
C3'
A   11
C2'
A   12
N1'
A   13
C5'
A   14
C4'
A   15
O09
A   16
C10
A   17
C11
A   18
N12
A   19
C13
A   20
C21
A   21
C22
A   22
O22
A   23
C27
A   24
C26
A   25
C25
A   26
C24
A   27
C23
M  END
>  <Id>  (51) 
3TYM_08R_B_800

>  <ChainId>  (51) 
B

>  <AsymId>  (51) 
K

>  <SeqNum>  (51) 
800

>  <Name>  (51) 
6-{[(3S,4S)-4-{2-[(2-methoxybenzyl)amino]ethoxy}pyrrolidin-3-yl]methyl}-4-methylpyridin-2-amine

>  <SystematicName>  (51) 
6-[[(3S,4S)-4-[2-[(2-methoxyphenyl)methylamino]ethoxy]pyrrolidin-3-yl]methyl]-4-methyl-pyridin-2-amine

>  <Synonyms>  (51) 


>  <Type>  (51) 
NON-POLYMER

>  <Formula>  (51) 
C21 H30 N4 O2

>  <ObservedFormula>  (51) 
C21 N4 O2

>  <MolecularWeight>  (51) 
370.489

>  <ModifiedDate>  (51) 
2012-03-09

>  <Parent>  (51) 


>  <OneLetterCode>  (51) 


>  <SubcomponentList>  (51) 


>  <AmbiguousFlag>  (51) 
N

>  <InsertionCode>  (51) 


>  <InstanceId>  (51) 
3TYM_08R_B_800

>  <ChemCompId>  (51) 
08R

>  <PdbId>  (51) 
3TYM

>  <ResidueNumber>  (51) 
800

>  <InChI>  (51) 
InChI=1S/C21H30N4O2/c1-15-9-18(25-21(22)10-15)11-17-13-24-14-20(17)27-8-7-23-12-16-5-3-4-6-19(16)26-2/h3-6,9-10,17,20,23-24H,7-8,11-14H2,1-2H3,(H2,22,25)/t17-,20+/m0/s1

>  <InChIKey>  (51) 
CNZPKQOAIMARQF-FXAWDEMLSA-N

>  <SMILES>  (51) 
Cc1cc(nc(c1)N)C[C@H]2CNC[C@H]2OCCNCc3ccccc3OC

>  <MissingHeavyAtoms>  (51) 
0

>  <Model>  (51) 
1

>  <AltIds>  (51) 


>  <pKI>  (51) 
6.09

>  <ChemblID>  (51) 
CHEMBL1956739

>  <standardized_canonical_smiles>  (51) 
COc1ccccc1CNCCO[C@@H]1CNC[C@@H]1Cc1cc(C)cc(N)n1

$$$$
3TYN_CXW_B_800
     RDKit          3D

 26 28  0  0  0  0  0  0  0  0999 V2000
   20.5810    5.3990   53.9600 O   0  0  0  0  0  0  0  0  0  0  0  0
   19.9020    6.5650   54.1690 C   0  0  0  0  0  0  0  0  0  0  0  0
   20.5260    7.8000   53.9610 C   0  0  0  0  0  0  0  0  0  0  0  0
   19.8170    8.9870   54.1720 C   0  0  0  0  0  0  0  0  0  0  0  0
   18.4850    8.9510   54.5950 C   0  0  0  0  0  0  0  0  0  0  0  0
   17.8210    7.7420   54.8250 C   0  0  0  0  0  0  0  0  0  0  0  0
   18.4790    6.5230   54.6320 C   0  0  0  0  0  0  0  0  0  0  0  0
   17.8060    5.1660   54.8540 C   0  0  0  0  0  0  0  0  0  0  0  0
   16.7390    5.1610   55.8510 N   0  0  0  0  0  0  0  0  0  0  0  0
   17.0290    5.0300   57.2770 C   0  0  0  0  0  0  0  0  0  0  0  0
   17.3560    3.5830   57.5900 C   0  0  0  0  0  0  0  0  0  0  0  0
   16.1420    2.8670   57.3980 O   0  0  0  0  0  0  0  0  0  0  0  0
   16.3630    1.5170   57.8160 C   0  0  0  0  0  0  0  0  0  0  0  0
   16.5190    0.5190   56.6410 C   0  0  0  0  0  0  0  0  0  0  0  0
   15.9010   -0.6810   57.1480 N   0  0  0  0  0  0  0  0  0  0  0  0
   15.3850   -0.5120   58.5100 C   0  0  0  0  0  0  0  0  0  0  0  0
   15.1950    1.0000   58.6250 C   0  0  0  0  0  0  0  0  0  0  0  0
   13.8790    1.4900   58.0040 C   0  0  0  0  0  0  0  0  0  0  0  0
   12.6690    0.8710   58.6790 C   0  0  0  0  0  0  0  0  0  0  0  0
   12.0650    1.5040   59.7710 C   0  0  0  0  0  0  0  0  0  0  0  0
   10.9820    0.9230   60.4120 C   0  0  0  0  0  0  0  0  0  0  0  0
   10.3510    1.6430   61.5840 C   0  0  0  0  0  0  0  0  0  0  0  0
   12.1690   -0.3030   58.2360 N   0  0  0  0  0  0  0  0  0  0  0  0
   11.0950   -0.8840   58.8290 C   0  0  0  0  0  0  0  0  0  0  0  0
   10.6710   -2.0620   58.3300 N   0  0  0  0  0  0  0  0  0  0  0  0
   10.4720   -0.2990   59.9510 C   0  0  0  0  0  0  0  0  0  0  0  0
  2  1  1  0
  3  2  2  0
  7  2  1  0
  4  3  1  0
  5  4  2  0
  6  5  1  0
  7  6  2  0
  8  7  1  0
  9  8  1  0
 10  9  1  0
 11 10  1  0
 12 11  1  0
 13 12  1  0
 14 13  1  0
 17 13  1  0
 15 14  1  0
 16 15  1  0
 17 16  1  0
 18 17  1  0
 19 18  1  0
 20 19  2  0
 23 19  1  0
 21 20  1  0
 22 21  1  0
 26 21  2  0
 24 23  2  0
 25 24  1  0
 26 24  1  0
A    1
O22
A    2
C22
A    3
C23
A    4
C24
A    5
C25
A    6
C26
A    7
C21
A    8
C13
A    9
N12
A   10
C11
A   11
C10
A   12
O09
A   13
C4'
A   14
C5'
A   15
N1'
A   16
C2'
A   17
C3'
A   18
C08
A   19
C06
A   20
C05
A   21
C04
A   22
C07
A   23
N01
A   24
C02
A   25
N02
A   26
C03
M  END
>  <Id>  (52) 
3TYN_CXW_B_800

>  <ChainId>  (52) 
B

>  <AsymId>  (52) 
K

>  <SeqNum>  (52) 
800

>  <Name>  (52) 
2-({[2-({(3S,4S)-4-[(6-amino-4-methylpyridin-2-yl)methyl]pyrrolidin-3-yl}oxy)ethyl]amino}methyl)phenol

>  <SystematicName>  (52) 
2-[[2-[(3S,4S)-4-[(6-azanyl-4-methyl-pyridin-2-yl)methyl]pyrrolidin-3-yl]oxyethylamino]methyl]phenol

>  <Synonyms>  (52) 


>  <Type>  (52) 
NON-POLYMER

>  <Formula>  (52) 
C20 H28 N4 O2

>  <ObservedFormula>  (52) 
C20 N4 O2

>  <MolecularWeight>  (52) 
356.462

>  <ModifiedDate>  (52) 
2012-03-09

>  <Parent>  (52) 


>  <OneLetterCode>  (52) 


>  <SubcomponentList>  (52) 


>  <AmbiguousFlag>  (52) 
N

>  <InsertionCode>  (52) 


>  <InstanceId>  (52) 
3TYN_CXW_B_800

>  <ChemCompId>  (52) 
CXW

>  <PdbId>  (52) 
3TYN

>  <ResidueNumber>  (52) 
800

>  <InChI>  (52) 
InChI=1S/C20H28N4O2/c1-14-8-17(24-20(21)9-14)10-16-12-23-13-19(16)26-7-6-22-11-15-4-2-3-5-18(15)25/h2-5,8-9,16,19,22-23,25H,6-7,10-13H2,1H3,(H2,21,24)/t16-,19+/m0/s1

>  <InChIKey>  (52) 
YLQFJYDIDCSGLP-QFBILLFUSA-N

>  <SMILES>  (52) 
Cc1cc(nc(c1)N)C[C@H]2CNC[C@H]2OCCNCc3ccccc3O

>  <MissingHeavyAtoms>  (52) 
0

>  <Model>  (52) 
1

>  <AltIds>  (52) 


>  <pKI>  (52) 
6.41

>  <ChemblID>  (52) 
CHEMBL1956740

>  <standardized_canonical_smiles>  (52) 
Cc1cc(N)nc(C[C@H]2CNC[C@H]2OCCNCc2ccccc2O)c1

$$$$
3TYO_DXW_B_800
     RDKit          3D

 24 26  0  0  0  0  0  0  0  0999 V2000
   10.5670   -2.0490   58.3960 N   0  0  0  0  0  0  0  0  0  0  0  0
   11.0740   -0.8920   58.8990 C   0  0  0  0  0  0  0  0  0  0  0  0
   10.4900   -0.2880   60.0360 C   0  0  0  0  0  0  0  0  0  0  0  0
   11.0460    0.8980   60.5110 C   0  0  0  0  0  0  0  0  0  0  0  0
   12.1530    1.4530   59.8780 C   0  0  0  0  0  0  0  0  0  0  0  0
   10.4480    1.6120   61.7090 C   0  0  0  0  0  0  0  0  0  0  0  0
   12.1610   -0.3310   58.3060 N   0  0  0  0  0  0  0  0  0  0  0  0
   12.7070    0.8150   58.7680 C   0  0  0  0  0  0  0  0  0  0  0  0
   13.9370    1.3910   58.1040 C   0  0  0  0  0  0  0  0  0  0  0  0
   15.2530    0.8620   58.6970 C   0  0  0  0  0  0  0  0  0  0  0  0
   16.4380    1.4000   57.9250 C   0  0  0  0  0  0  0  0  0  0  0  0
   16.7070    0.4100   56.7730 C   0  0  0  0  0  0  0  0  0  0  0  0
   16.0870   -0.8110   57.2630 N   0  0  0  0  0  0  0  0  0  0  0  0
   15.4510   -0.6490   58.5730 C   0  0  0  0  0  0  0  0  0  0  0  0
   16.1870    2.7150   57.4570 O   0  0  0  0  0  0  0  0  0  0  0  0
   17.3560    3.5010   57.6710 C   0  0  0  0  0  0  0  0  0  0  0  0
   16.9110    4.9280   57.3630 C   0  0  0  0  0  0  0  0  0  0  0  0
   16.6000    5.0840   55.9410 N   0  0  0  0  0  0  0  0  0  0  0  0
   17.7130    5.2310   54.9950 C   0  0  0  0  0  0  0  0  0  0  0  0
   18.3400    6.6200   54.9330 C   0  0  0  0  0  0  0  0  0  0  0  0
   17.7210    7.8040   54.5890 O   0  0  0  0  0  0  0  0  0  0  0  0
   18.6480    8.8320   54.6340 C   0  0  0  0  0  0  0  0  0  0  0  0
   19.8600    8.2830   55.0050 C   0  0  0  0  0  0  0  0  0  0  0  0
   19.6800    6.9200   55.1840 C   0  0  0  0  0  0  0  0  0  0  0  0
  2  1  1  0
  3  2  2  0
  7  2  1  0
  4  3  1  0
  5  4  2  0
  6  4  1  0
  8  5  1  0
  8  7  2  0
  9  8  1  0
 10  9  1  0
 11 10  1  0
 14 10  1  0
 12 11  1  0
 15 11  1  0
 13 12  1  0
 14 13  1  0
 16 15  1  0
 17 16  1  0
 18 17  1  0
 19 18  1  0
 20 19  1  0
 21 20  1  0
 24 20  2  0
 22 21  1  0
 23 22  2  0
 24 23  1  0
A    1
N02
A    2
C02
A    3
C03
A    4
C04
A    5
C05
A    6
C07
A    7
N01
A    8
C06
A    9
C08
A   10
C3'
A   11
C4'
A   12
C5'
A   13
N1'
A   14
C2'
A   15
O09
A   16
C10
A   17
C11
A   18
N12
A   19
C13
A   20
C22
A   21
O21
A   22
C23
A   23
C24
A   24
C25
M  END
>  <Id>  (53) 
3TYO_DXW_B_800

>  <ChainId>  (53) 
B

>  <AsymId>  (53) 
K

>  <SeqNum>  (53) 
800

>  <Name>  (53) 
6-{[(3S,4S)-4-{2-[(furan-2-ylmethyl)amino]ethoxy}pyrrolidin-3-yl]methyl}-4-methylpyridin-2-amine

>  <SystematicName>  (53) 
6-[[(3S,4S)-4-[2-(furan-2-ylmethylamino)ethoxy]pyrrolidin-3-yl]methyl]-4-methyl-pyridin-2-amine

>  <Synonyms>  (53) 


>  <Type>  (53) 
NON-POLYMER

>  <Formula>  (53) 
C18 H26 N4 O2

>  <ObservedFormula>  (53) 
C18 N4 O2

>  <MolecularWeight>  (53) 
330.425

>  <ModifiedDate>  (53) 
2012-03-09

>  <Parent>  (53) 


>  <OneLetterCode>  (53) 


>  <SubcomponentList>  (53) 


>  <AmbiguousFlag>  (53) 
N

>  <InsertionCode>  (53) 


>  <InstanceId>  (53) 
3TYO_DXW_B_800

>  <ChemCompId>  (53) 
DXW

>  <PdbId>  (53) 
3TYO

>  <ResidueNumber>  (53) 
800

>  <InChI>  (53) 
InChI=1S/C18H26N4O2/c1-13-7-15(22-18(19)8-13)9-14-10-21-12-17(14)24-6-4-20-11-16-3-2-5-23-16/h2-3,5,7-8,14,17,20-21H,4,6,9-12H2,1H3,(H2,19,22)/t14-,17+/m0/s1

>  <InChIKey>  (53) 
JGPWHIBNRITPFL-WMLDXEAASA-N

>  <SMILES>  (53) 
Cc1cc(nc(c1)N)C[C@H]2CNC[C@H]2OCCNCc3ccco3

>  <MissingHeavyAtoms>  (53) 
0

>  <Model>  (53) 
1

>  <AltIds>  (53) 


>  <pKI>  (53) 
6.4

>  <ChemblID>  (53) 
CHEMBL1956741

>  <standardized_canonical_smiles>  (53) 
Cc1cc(N)nc(C[C@H]2CNC[C@H]2OCCNCc2ccco2)c1

$$$$
4IMW_1EV_B_802
     RDKit          3D

 28 30  0  0  0  0  0  0  0  0999 V2000
   20.3700    0.6400   56.5730 N   0  0  0  0  0  0  0  0  0  0  0  0
   19.4100    1.2980   56.6110 C   0  0  0  0  0  0  0  0  0  0  0  0
   18.3570    2.0370   56.6490 C   0  0  0  0  0  0  0  0  0  0  0  0
   18.3120    3.2770   56.0410 C   0  0  0  0  0  0  0  0  0  0  0  0
   17.2300    1.5560   57.3030 C   0  0  0  0  0  0  0  0  0  0  0  0
   16.0330    2.2790   57.3730 C   0  0  0  0  0  0  0  0  0  0  0  0
   14.8870    1.6000   58.1330 C   0  0  0  0  0  0  0  0  0  0  0  0
   13.4800    1.9810   57.6530 C   0  0  0  0  0  0  0  0  0  0  0  0
   12.4400    1.1820   58.4430 C   0  0  0  0  0  0  0  0  0  0  0  0
   12.0650   -0.0710   58.0650 N   0  0  0  0  0  0  0  0  0  0  0  0
   11.1260   -0.7630   58.7470 C   0  0  0  0  0  0  0  0  0  0  0  0
   10.7370   -1.9890   58.3370 N   0  0  0  0  0  0  0  0  0  0  0  0
   10.5500   -0.2210   59.8960 C   0  0  0  0  0  0  0  0  0  0  0  0
   10.9330    1.0450   60.3160 C   0  0  0  0  0  0  0  0  0  0  0  0
   11.8540    1.7560   59.5710 C   0  0  0  0  0  0  0  0  0  0  0  0
   10.3220    1.6450   61.5470 C   0  0  0  0  0  0  0  0  0  0  0  0
   15.9940    3.5550   56.7690 C   0  0  0  0  0  0  0  0  0  0  0  0
   17.1350    4.0410   56.0870 C   0  0  0  0  0  0  0  0  0  0  0  0
   17.1460    5.4080   55.4060 C   0  0  0  0  0  0  0  0  0  0  0  0
   18.4490    6.1690   55.7230 C   0  0  0  0  0  0  0  0  0  0  0  0
   18.4610    7.5930   55.1900 C   0  0  0  0  0  0  0  0  0  0  0  0
   17.3300    8.3520   55.2480 N   0  0  0  0  0  0  0  0  0  0  0  0
   17.2540    9.6340   54.7880 C   0  0  0  0  0  0  0  0  0  0  0  0
   16.0740   10.3290   54.8820 N   0  0  0  0  0  0  0  0  0  0  0  0
   18.4110   10.2120   54.2440 C   0  0  0  0  0  0  0  0  0  0  0  0
   19.5950    9.4560   54.1720 C   0  0  0  0  0  0  0  0  0  0  0  0
   20.8290   10.0730   53.5740 C   0  0  0  0  0  0  0  0  0  0  0  0
   19.6280    8.1380   54.6410 C   0  0  0  0  0  0  0  0  0  0  0  0
  2  1  3  0
  3  2  1  0
  4  3  2  0
  5  3  1  0
 18  4  1  0
  6  5  2  0
  7  6  1  0
 17  6  1  0
  8  7  1  0
  9  8  1  0
 10  9  2  0
 15  9  1  0
 11 10  1  0
 12 11  1  0
 13 11  2  0
 14 13  1  0
 15 14  2  0
 16 14  1  0
 18 17  2  0
 19 18  1  0
 20 19  1  0
 21 20  1  0
 22 21  2  0
 28 21  1  0
 23 22  1  0
 24 23  1  0
 25 23  2  0
 26 25  1  0
 27 26  1  0
 28 26  2  0
A    1
N10
A    2
C10
A    3
C11
A    4
C16
A    5
C12
A    6
C13
A    7
C09
A    8
C08
A    9
C06
A   10
N01
A   11
C02
A   12
N02
A   13
C03
A   14
C04
A   15
C05
A   16
C07
A   17
C14
A   18
C15
A   19
C29
A   20
C28
A   21
C26
A   22
N21
A   23
C22
A   24
N22
A   25
C23
A   26
C24
A   27
C27
A   28
C25
M  END
>  <Id>  (54) 
4IMW_1EV_B_802

>  <ChainId>  (54) 
B

>  <AsymId>  (54) 
J

>  <SeqNum>  (54) 
802

>  <Name>  (54) 
3,5-bis[2-(6-amino-4-methylpyridin-2-yl)ethyl]benzonitrile

>  <SystematicName>  (54) 
3,5-bis[2-(6-azanyl-4-methyl-pyridin-2-yl)ethyl]benzenecarbonitrile

>  <Synonyms>  (54) 


>  <Type>  (54) 
NON-POLYMER

>  <Formula>  (54) 
C23 H25 N5

>  <ObservedFormula>  (54) 
C23 N5

>  <MolecularWeight>  (54) 
371.478

>  <ModifiedDate>  (54) 
2013-04-19

>  <Parent>  (54) 


>  <OneLetterCode>  (54) 


>  <SubcomponentList>  (54) 


>  <AmbiguousFlag>  (54) 
N

>  <InsertionCode>  (54) 


>  <InstanceId>  (54) 
4IMW_1EV_B_802

>  <ChemCompId>  (54) 
1EV

>  <PdbId>  (54) 
4IMW

>  <ResidueNumber>  (54) 
802

>  <InChI>  (54) 
InChI=1S/C23H25N5/c1-15-7-20(27-22(25)9-15)5-3-17-11-18(13-19(12-17)14-24)4-6-21-8-16(2)10-23(26)28-21/h7-13H,3-6H2,1-2H3,(H2,25,27)(H2,26,28)

>  <InChIKey>  (54) 
IXUSJKAERUMZME-UHFFFAOYSA-N

>  <SMILES>  (54) 
Cc1cc(nc(c1)N)CCc2cc(cc(c2)C#N)CCc3cc(cc(n3)N)C

>  <MissingHeavyAtoms>  (54) 
0

>  <Model>  (54) 
1

>  <AltIds>  (54) 


>  <pKI>  (54) 
7.25

>  <ChemblID>  (54) 
CHEMBL2326361

>  <standardized_canonical_smiles>  (54) 
Cc1cc(N)nc(CCc2cc(C#N)cc(CCc3cc(C)cc(N)n3)c2)c1

$$$$
4IMU_1ET_B_802
     RDKit          3D

 28 30  0  0  0  0  0  0  0  0999 V2000
   19.3320   10.2180   53.2610 N   0  0  0  0  0  0  0  0  0  0  0  0
   19.5400    8.9710   53.7440 C   0  0  0  0  0  0  0  0  0  0  0  0
   20.6750    8.2660   53.3260 C   0  0  0  0  0  0  0  0  0  0  0  0
   20.9170    6.9760   53.7980 C   0  0  0  0  0  0  0  0  0  0  0  0
   22.1310    6.1920   53.3590 C   0  0  0  0  0  0  0  0  0  0  0  0
   20.0080    6.4280   54.6980 C   0  0  0  0  0  0  0  0  0  0  0  0
   18.6570    8.4170   54.6220 N   0  0  0  0  0  0  0  0  0  0  0  0
   18.8840    7.1680   55.1040 C   0  0  0  0  0  0  0  0  0  0  0  0
   17.9080    6.5410   56.0670 C   0  0  0  0  0  0  0  0  0  0  0  0
   17.0970    5.5180   55.2620 C   0  0  0  0  0  0  0  0  0  0  0  0
   17.1830    4.1750   55.9300 C   0  0  0  0  0  0  0  0  0  0  0  0
   18.4250    3.5370   55.9430 C   0  0  0  0  0  0  0  0  0  0  0  0
   18.5600    2.2920   56.5590 C   0  0  0  0  0  0  0  0  0  0  0  0
   19.9270    1.6260   56.5520 C   0  0  0  0  0  0  0  0  0  0  0  0
   19.9240    0.2200   56.1800 N   0  0  0  0  0  0  0  0  0  0  0  0
   17.4340    1.7130   57.1690 C   0  0  0  0  0  0  0  0  0  0  0  0
   16.0550    3.6010   56.5380 C   0  0  0  0  0  0  0  0  0  0  0  0
   16.1760    2.3490   57.1530 C   0  0  0  0  0  0  0  0  0  0  0  0
   15.0150    1.6340   57.8380 C   0  0  0  0  0  0  0  0  0  0  0  0
   13.6110    1.9780   57.3260 C   0  0  0  0  0  0  0  0  0  0  0  0
   12.5840    1.2200   58.1750 C   0  0  0  0  0  0  0  0  0  0  0  0
   12.2010   -0.0500   57.8670 N   0  0  0  0  0  0  0  0  0  0  0  0
   11.2900   -0.7330   58.6030 C   0  0  0  0  0  0  0  0  0  0  0  0
   10.9550   -1.9840   58.2060 N   0  0  0  0  0  0  0  0  0  0  0  0
   10.7090   -0.1430   59.7410 C   0  0  0  0  0  0  0  0  0  0  0  0
   11.0940    1.1620   60.0780 C   0  0  0  0  0  0  0  0  0  0  0  0
   12.0330    1.8280   59.2890 C   0  0  0  0  0  0  0  0  0  0  0  0
   10.5330    1.8950   61.2700 C   0  0  0  0  0  0  0  0  0  0  0  0
  2  1  1  0
  3  2  2  0
  7  2  1  0
  4  3  1  0
  5  4  1  0
  6  4  2  0
  8  6  1  0
  8  7  2  0
  9  8  1  0
 10  9  1  0
 11 10  1  0
 12 11  2  0
 17 11  1  0
 13 12  1  0
 14 13  1  0
 16 13  2  0
 15 14  1  0
 18 16  1  0
 18 17  2  0
 19 18  1  0
 20 19  1  0
 21 20  1  0
 22 21  2  0
 27 21  1  0
 23 22  1  0
 24 23  1  0
 25 23  2  0
 26 25  1  0
 27 26  2  0
 28 26  1  0
A    1
N22
A    2
C22
A    3
C23
A    4
C24
A    5
C27
A    6
C25
A    7
N21
A    8
C26
A    9
C28
A   10
C29
A   11
C15
A   12
C14
A   13
C13
A   14
C17
A   15
N18
A   16
C12
A   17
C16
A   18
C11
A   19
C09
A   20
C08
A   21
C06
A   22
N01
A   23
C02
A   24
N02
A   25
C03
A   26
C04
A   27
C05
A   28
C07
M  END
>  <Id>  (55) 
4IMU_1ET_B_802

>  <ChainId>  (55) 
B

>  <AsymId>  (55) 
M

>  <SeqNum>  (55) 
802

>  <Name>  (55) 
6,6'-{[5-(aminomethyl)benzene-1,3-diyl]diethane-2,1-diyl}bis(4-methylpyridin-2-amine)

>  <SystematicName>  (55) 
6-[2-[3-(aminomethyl)-5-[2-(6-azanyl-4-methyl-pyridin-2-yl)ethyl]phenyl]ethyl]-4-methyl-pyridin-2-amine

>  <Synonyms>  (55) 


>  <Type>  (55) 
NON-POLYMER

>  <Formula>  (55) 
C23 H29 N5

>  <ObservedFormula>  (55) 
C23 N5

>  <MolecularWeight>  (55) 
375.51

>  <ModifiedDate>  (55) 
2013-04-19

>  <Parent>  (55) 


>  <OneLetterCode>  (55) 


>  <SubcomponentList>  (55) 


>  <AmbiguousFlag>  (55) 
N

>  <InsertionCode>  (55) 


>  <InstanceId>  (55) 
4IMU_1ET_B_802

>  <ChemCompId>  (55) 
1ET

>  <PdbId>  (55) 
4IMU

>  <ResidueNumber>  (55) 
802

>  <InChI>  (55) 
InChI=1S/C23H29N5/c1-15-7-20(27-22(25)9-15)5-3-17-11-18(13-19(12-17)14-24)4-6-21-8-16(2)10-23(26)28-21/h7-13H,3-6,14,24H2,1-2H3,(H2,25,27)(H2,26,28)

>  <InChIKey>  (55) 
JCCJTHWRJDOXTL-UHFFFAOYSA-N

>  <SMILES>  (55) 
Cc1cc(nc(c1)N)CCc2cc(cc(c2)CN)CCc3cc(cc(n3)N)C

>  <MissingHeavyAtoms>  (55) 
0

>  <Model>  (55) 
1

>  <AltIds>  (55) 


>  <pKI>  (55) 
7.28

>  <ChemblID>  (55) 
CHEMBL2326360

>  <standardized_canonical_smiles>  (55) 
Cc1cc(N)nc(CCc2cc(CN)cc(CCc3cc(C)cc(N)n3)c2)c1

$$$$
4IMT_1EW_B_804
     RDKit          3D

 30 32  0  0  0  0  0  0  0  0999 V2000
   16.1970   10.3010   54.3110 N   0  0  0  0  0  0  0  0  0  0  0  0
   17.2730    9.4780   54.4110 C   0  0  0  0  0  0  0  0  0  0  0  0
   18.5130    9.8080   53.8430 C   0  0  0  0  0  0  0  0  0  0  0  0
   19.5990    8.9280   53.9720 C   0  0  0  0  0  0  0  0  0  0  0  0
   20.9380    9.2680   53.3630 C   0  0  0  0  0  0  0  0  0  0  0  0
   19.4300    7.7380   54.6680 C   0  0  0  0  0  0  0  0  0  0  0  0
   17.1500    8.3080   55.0800 N   0  0  0  0  0  0  0  0  0  0  0  0
   18.1840    7.4430   55.2070 C   0  0  0  0  0  0  0  0  0  0  0  0
   17.9640    6.1680   55.9690 C   0  0  0  0  0  0  0  0  0  0  0  0
   17.3410    5.0570   55.1110 C   0  0  0  0  0  0  0  0  0  0  0  0
   17.2670    3.8380   56.0050 C   0  0  0  0  0  0  0  0  0  0  0  0
   18.4340    3.1060   56.2610 C   0  0  0  0  0  0  0  0  0  0  0  0
   19.7890    3.3980   55.6360 C   0  0  0  0  0  0  0  0  0  0  0  0
   19.8810    2.5480   54.3610 C   0  0  0  0  0  0  0  0  0  0  0  0
   20.2900    1.0860   54.6260 C   0  0  0  0  0  0  0  0  0  0  0  0
   19.2910    0.1210   54.1530 N   0  0  0  0  0  0  0  0  0  0  0  0
   18.3760    2.0030   57.0880 C   0  0  0  0  0  0  0  0  0  0  0  0
   17.1840    1.6280   57.6740 C   0  0  0  0  0  0  0  0  0  0  0  0
   16.0500    3.4800   56.6260 C   0  0  0  0  0  0  0  0  0  0  0  0
   16.0110    2.3460   57.4510 C   0  0  0  0  0  0  0  0  0  0  0  0
   14.7930    1.8040   58.1880 C   0  0  0  0  0  0  0  0  0  0  0  0
   13.4930    1.7640   57.4050 C   0  0  0  0  0  0  0  0  0  0  0  0
   12.4110    1.0510   58.2510 C   0  0  0  0  0  0  0  0  0  0  0  0
   11.9030    1.6330   59.3960 C   0  0  0  0  0  0  0  0  0  0  0  0
   11.9300   -0.1480   57.8580 N   0  0  0  0  0  0  0  0  0  0  0  0
   10.9980   -0.7990   58.5430 C   0  0  0  0  0  0  0  0  0  0  0  0
   10.5970   -1.9800   58.0520 N   0  0  0  0  0  0  0  0  0  0  0  0
   10.4680   -0.2460   59.7140 C   0  0  0  0  0  0  0  0  0  0  0  0
   10.9390    0.9970   60.1430 C   0  0  0  0  0  0  0  0  0  0  0  0
   10.4410    1.6760   61.3840 C   0  0  0  0  0  0  0  0  0  0  0  0
  2  1  1  0
  3  2  2  0
  7  2  1  0
  4  3  1  0
  5  4  1  0
  6  4  2  0
  8  6  1  0
  8  7  2  0
  9  8  1  0
 10  9  1  0
 11 10  1  0
 12 11  2  0
 19 11  1  0
 13 12  1  0
 17 12  1  0
 14 13  1  0
 15 14  1  0
 16 15  1  0
 18 17  2  0
 20 18  1  0
 20 19  2  0
 21 20  1  0
 22 21  1  0
 23 22  1  0
 24 23  2  0
 25 23  1  0
 29 24  1  0
 26 25  2  0
 27 26  1  0
 28 26  1  0
 29 28  2  0
 30 29  1  0
A    1
N22
A    2
C22
A    3
C23
A    4
C24
A    5
C27
A    6
C25
A    7
N21
A    8
C26
A    9
C28
A   10
C29
A   11
C15
A   12
C14
A   13
C17
A   14
C18
A   15
C19
A   16
N20
A   17
C13
A   18
C12
A   19
C16
A   20
C11
A   21
C09
A   22
C08
A   23
C06
A   24
C05
A   25
N01
A   26
C02
A   27
N02
A   28
C03
A   29
C04
A   30
C07
M  END
>  <Id>  (56) 
4IMT_1EW_B_804

>  <ChainId>  (56) 
B

>  <AsymId>  (56) 
K

>  <SeqNum>  (56) 
804

>  <Name>  (56) 
6,6'-{[4-(3-aminopropyl)benzene-1,3-diyl]diethane-2,1-diyl}bis(4-methylpyridin-2-amine)

>  <SystematicName>  (56) 
6-[2-[3-[2-(6-azanyl-4-methyl-pyridin-2-yl)ethyl]-4-(3-azanylpropyl)phenyl]ethyl]-4-methyl-pyridin-2-amine

>  <Synonyms>  (56) 


>  <Type>  (56) 
NON-POLYMER

>  <Formula>  (56) 
C25 H33 N5

>  <ObservedFormula>  (56) 
C25 N5

>  <MolecularWeight>  (56) 
403.563

>  <ModifiedDate>  (56) 
2013-04-19

>  <Parent>  (56) 


>  <OneLetterCode>  (56) 


>  <SubcomponentList>  (56) 


>  <AmbiguousFlag>  (56) 
N

>  <InsertionCode>  (56) 


>  <InstanceId>  (56) 
4IMT_1EW_B_804

>  <ChemCompId>  (56) 
1EW

>  <PdbId>  (56) 
4IMT

>  <ResidueNumber>  (56) 
804

>  <InChI>  (56) 
InChI=1S/C25H33N5/c1-17-12-22(29-24(27)14-17)9-6-19-5-7-20(4-3-11-26)21(16-19)8-10-23-13-18(2)15-25(28)30-23/h5,7,12-16H,3-4,6,8-11,26H2,1-2H3,(H2,27,29)(H2,28,30)

>  <InChIKey>  (56) 
KSYDDSWEHNSQGZ-UHFFFAOYSA-N

>  <SMILES>  (56) 
Cc1cc(nc(c1)N)CCc2ccc(c(c2)CCc3cc(cc(n3)N)C)CCCN

>  <MissingHeavyAtoms>  (56) 
0

>  <Model>  (56) 
1

>  <AltIds>  (56) 


>  <pKI>  (56) 
6.96

>  <ChemblID>  (56) 
CHEMBL2326359

>  <standardized_canonical_smiles>  (56) 
Cc1cc(N)nc(CCc2ccc(CCCN)c(CCc3cc(C)cc(N)n3)c2)c1

$$$$
4IMS_12S_B_802
     RDKit          3D

 30 32  0  0  0  0  0  0  0  0999 V2000
   15.1960    3.9650   47.8520 N   0  0  0  0  0  0  0  0  0  0  0  0
   16.2980    4.1530   48.6500 C   0  0  0  0  0  0  0  0  0  0  0  0
   17.4200    4.7860   48.1090 C   0  0  0  0  0  0  0  0  0  0  0  0
   18.5360    4.9760   48.9380 C   0  0  0  0  0  0  0  0  0  0  0  0
   19.7810    5.6470   48.4120 C   0  0  0  0  0  0  0  0  0  0  0  0
   18.5330    4.5320   50.2660 C   0  0  0  0  0  0  0  0  0  0  0  0
   16.3200    3.7190   49.9580 N   0  0  0  0  0  0  0  0  0  0  0  0
   17.4090    3.9070   50.7850 C   0  0  0  0  0  0  0  0  0  0  0  0
   17.4580    3.4310   52.2470 C   0  0  0  0  0  0  0  0  0  0  0  0
   16.7380    4.3060   53.2950 C   0  0  0  0  0  0  0  0  0  0  0  0
   16.8630    3.7400   54.6960 C   0  0  0  0  0  0  0  0  0  0  0  0
   15.7760    3.2650   55.4710 C   0  0  0  0  0  0  0  0  0  0  0  0
   18.1500    3.6970   55.2190 C   0  0  0  0  0  0  0  0  0  0  0  0
   18.3660    3.1840   56.4970 C   0  0  0  0  0  0  0  0  0  0  0  0
   19.7690    3.1270   57.0320 C   0  0  0  0  0  0  0  0  0  0  0  0
   20.5400    2.1820   56.0930 C   0  0  0  0  0  0  0  0  0  0  0  0
   19.9150    0.7860   55.9610 C   0  0  0  0  0  0  0  0  0  0  0  0
   20.5830   -0.2230   56.7720 N   0  0  0  0  0  0  0  0  0  0  0  0
   17.3040    2.7050   57.2630 C   0  0  0  0  0  0  0  0  0  0  0  0
   15.9970    2.7410   56.7720 C   0  0  0  0  0  0  0  0  0  0  0  0
   14.9580    2.1590   57.7360 C   0  0  0  0  0  0  0  0  0  0  0  0
   13.5190    2.0130   57.2520 C   0  0  0  0  0  0  0  0  0  0  0  0
   12.5590    1.2870   58.2070 C   0  0  0  0  0  0  0  0  0  0  0  0
   12.0330    1.9130   59.3390 C   0  0  0  0  0  0  0  0  0  0  0  0
   12.1720   -0.0090   57.9490 N   0  0  0  0  0  0  0  0  0  0  0  0
   11.2710   -0.6780   58.7030 C   0  0  0  0  0  0  0  0  0  0  0  0
   10.9060   -1.9310   58.3640 N   0  0  0  0  0  0  0  0  0  0  0  0
   10.7470   -0.0880   59.8480 C   0  0  0  0  0  0  0  0  0  0  0  0
   11.1320    1.2050   60.1610 C   0  0  0  0  0  0  0  0  0  0  0  0
   10.5600    1.8270   61.3990 C   0  0  0  0  0  0  0  0  0  0  0  0
  2  1  1  0
  3  2  2  0
  7  2  1  0
  4  3  1  0
  5  4  1  0
  6  4  2  0
  8  6  1  0
  8  7  2  0
  9  8  1  0
 10  9  1  0
 11 10  1  0
 12 11  2  0
 13 11  1  0
 20 12  1  0
 14 13  2  0
 15 14  1  0
 19 14  1  0
 16 15  1  0
 17 16  1  0
 18 17  1  0
 20 19  2  0
 21 20  1  0
 22 21  1  0
 23 22  1  0
 24 23  2  0
 25 23  1  0
 29 24  1  0
 26 25  2  0
 27 26  1  0
 28 26  1  0
 29 28  2  0
 30 29  1  0
A    1
N26
A    2
C26
A    3
C25
A    4
C24
A    5
C27
A    6
C23
A    7
N21
A    8
C22
A    9
C28
A   10
C29
A   11
C5
A   12
C4
A   13
C6
A   14
C1
A   15
C7
A   16
C8
A   17
C9
A   18
N10
A   19
C2
A   20
C3
A   21
C19
A   22
C18
A   23
C12
A   24
C13
A   25
N11
A   26
C16
A   27
N16
A   28
C15
A   29
C14
A   30
C17
M  END
>  <Id>  (57) 
4IMS_12S_B_802

>  <ChainId>  (57) 
B

>  <AsymId>  (57) 
K

>  <SeqNum>  (57) 
802

>  <Name>  (57) 
6,6'-{[5-(3-aminopropyl)benzene-1,3-diyl]diethane-2,1-diyl}bis(4-methylpyridin-2-amine)

>  <SystematicName>  (57) 
6-[2-[3-[2-(6-azanyl-4-methyl-pyridin-2-yl)ethyl]-5-(3-azanylpropyl)phenyl]ethyl]-4-methyl-pyridin-2-amine

>  <Synonyms>  (57) 


>  <Type>  (57) 
NON-POLYMER

>  <Formula>  (57) 
C25 H33 N5

>  <ObservedFormula>  (57) 
C25 N5

>  <MolecularWeight>  (57) 
403.563

>  <ModifiedDate>  (57) 
2013-04-19

>  <Parent>  (57) 


>  <OneLetterCode>  (57) 


>  <SubcomponentList>  (57) 


>  <AmbiguousFlag>  (57) 
N

>  <InsertionCode>  (57) 


>  <InstanceId>  (57) 
4IMS_12S_B_802

>  <ChemCompId>  (57) 
12S

>  <PdbId>  (57) 
4IMS

>  <ResidueNumber>  (57) 
802

>  <InChI>  (57) 
InChI=1S/C25H33N5/c1-17-10-22(29-24(27)12-17)7-5-20-14-19(4-3-9-26)15-21(16-20)6-8-23-11-18(2)13-25(28)30-23/h10-16H,3-9,26H2,1-2H3,(H2,27,29)(H2,28,30)

>  <InChIKey>  (57) 
TUMIYXWSFLIVFR-UHFFFAOYSA-N

>  <SMILES>  (57) 
Cc1cc(nc(c1)N)CCc2cc(cc(c2)CCc3cc(cc(n3)N)C)CCCN

>  <MissingHeavyAtoms>  (57) 
0

>  <Model>  (57) 
1

>  <AltIds>  (57) 


>  <pKI>  (57) 
6.27

>  <ChemblID>  (57) 
CHEMBL2326358

>  <standardized_canonical_smiles>  (57) 
Cc1cc(N)nc(CCc2cc(CCCN)cc(CCc3cc(C)cc(N)n3)c2)c1

$$$$
3RQM_X2E_B_805
     RDKit          3D

 28 30  0  0  0  0  0  0  0  0999 V2000
   17.1630    8.4930   55.4260 N   0  0  0  0  0  0  0  0  0  0  0  0
   16.9710    9.7240   54.8630 C   0  0  0  0  0  0  0  0  0  0  0  0
   15.7510   10.3550   54.9540 N   0  0  0  0  0  0  0  0  0  0  0  0
   18.0560   10.3240   54.2000 C   0  0  0  0  0  0  0  0  0  0  0  0
   19.2870    9.6440   54.1330 C   0  0  0  0  0  0  0  0  0  0  0  0
   19.4390    8.3670   54.7180 C   0  0  0  0  0  0  0  0  0  0  0  0
   18.3430    7.8060   55.3720 C   0  0  0  0  0  0  0  0  0  0  0  0
   20.4600   10.2850   53.4200 C   0  0  0  0  0  0  0  0  0  0  0  0
   18.4120    6.4330   56.0180 C   0  0  0  0  0  0  0  0  0  0  0  0
   17.9310    3.7320   56.3510 O   0  0  0  0  0  0  0  0  0  0  0  0
   17.5440    3.7380   53.5360 N   0  0  0  0  0  0  0  0  0  0  0  0
   18.1630    2.6320   57.2120 C   0  0  0  0  0  0  0  0  0  0  0  0
   16.8780    2.6000   58.0050 C   0  0  0  0  0  0  0  0  0  0  0  0
   15.8160    1.7340   57.5160 N   0  0  0  0  0  0  0  0  0  0  0  0
   14.8950    1.3700   58.5830 C   0  0  0  0  0  0  0  0  0  0  0  0
   13.4690    1.5900   58.1300 C   0  0  0  0  0  0  0  0  0  0  0  0
   15.1560   -0.0210   59.1580 C   0  0  0  0  0  0  0  0  0  0  0  0
   18.7060    3.1040   54.1550 C   0  0  0  0  0  0  0  0  0  0  0  0
   12.4020    0.8080   58.9120 C   0  0  0  0  0  0  0  0  0  0  0  0
   11.9200   -0.4280   58.4770 C   0  0  0  0  0  0  0  0  0  0  0  0
   10.8940   -1.0900   59.1380 C   0  0  0  0  0  0  0  0  0  0  0  0
   10.3480   -0.5250   60.3130 C   0  0  0  0  0  0  0  0  0  0  0  0
   10.8300    0.7070   60.7430 C   0  0  0  0  0  0  0  0  0  0  0  0
   10.3130    1.3260   61.8250 F   0  0  0  0  0  0  0  0  0  0  0  0
   11.8360    1.3650   60.0490 C   0  0  0  0  0  0  0  0  0  0  0  0
   18.9570    3.9920   55.3910 C   0  0  0  0  0  0  0  0  0  0  0  0
   18.6090    5.3880   54.9080 C   0  0  0  0  0  0  0  0  0  0  0  0
   17.3740    5.1190   54.0270 C   0  0  0  0  0  0  0  0  0  0  0  0
  2  1  2  0
  7  1  1  0
  3  2  1  0
  4  2  1  0
  5  4  2  0
  6  5  1  0
  8  5  1  0
  7  6  2  0
  9  7  1  0
 27  9  1  0
 12 10  1  0
 26 10  1  0
 18 11  1  0
 28 11  1  0
 13 12  1  0
 14 13  1  0
 15 14  1  0
 16 15  1  0
 17 15  1  0
 19 16  1  0
 26 18  1  0
 20 19  2  0
 25 19  1  0
 21 20  1  0
 22 21  2  0
 23 22  1  0
 24 23  1  0
 25 23  2  0
 27 26  1  0
 28 27  1  0
A    1
N01
A    2
C02
A    3
N02
A    4
C03
A    5
C04
A    6
C05
A    7
C06
A    8
C07
A    9
C08
A   10
O09
A   11
N1'
A   12
C10
A   13
C11
A   14
N11
A   15
C13
A   16
C14
A   17
C15
A   18
C2'
A   19
C21
A   20
C22
A   21
C23
A   22
C24
A   23
C25
A   24
F25
A   25
C26
A   26
C3'
A   27
C4'
A   28
C5'
M  END
>  <Id>  (58) 
3RQM_X2E_B_805

>  <ChainId>  (58) 
B

>  <AsymId>  (58) 
J

>  <SeqNum>  (58) 
805

>  <Name>  (58) 
6-{[(3R,4R)-4-(2-{[(2R)-1-(3-fluorophenyl)propan-2-yl]amino}ethoxy)pyrrolidin-3-yl]methyl}-4-methylpyridin-2-amine

>  <SystematicName>  (58) 
6-[[(3R,4R)-4-[2-[[(2R)-1-(3-fluorophenyl)propan-2-yl]amino]ethoxy]pyrrolidin-3-yl]methyl]-4-methyl-pyridin-2-amine

>  <Synonyms>  (58) 


>  <Type>  (58) 
NON-POLYMER

>  <Formula>  (58) 
C22 H31 F N4 O

>  <ObservedFormula>  (58) 
C22 F N4 O

>  <MolecularWeight>  (58) 
386.506

>  <ModifiedDate>  (58) 
2012-04-27

>  <Parent>  (58) 


>  <OneLetterCode>  (58) 


>  <SubcomponentList>  (58) 


>  <AmbiguousFlag>  (58) 
N

>  <InsertionCode>  (58) 


>  <InstanceId>  (58) 
3RQM_X2E_B_805

>  <ChemCompId>  (58) 
X2E

>  <PdbId>  (58) 
3RQM

>  <ResidueNumber>  (58) 
805

>  <InChI>  (58) 
InChI=1S/C22H31FN4O/c1-15-8-20(27-22(24)9-15)12-18-13-25-14-21(18)28-7-6-26-16(2)10-17-4-3-5-19(23)11-17/h3-5,8-9,11,16,18,21,25-26H,6-7,10,12-14H2,1-2H3,(H2,24,27)/t16-,18-,21+/m1/s1

>  <InChIKey>  (58) 
AUSIEXNWJKDTQY-BLIXFSHQSA-N

>  <SMILES>  (58) 
Cc1cc(nc(c1)N)C[C@@H]2CNC[C@@H]2OCCN[C@H](C)Cc3cccc(c3)F

>  <MissingHeavyAtoms>  (58) 
0

>  <Model>  (58) 
1

>  <AltIds>  (58) 


>  <pKI>  (58) 
7.15

>  <ChemblID>  (58) 
CHEMBL2332789

>  <standardized_canonical_smiles>  (58) 
Cc1cc(N)nc(C[C@@H]2CNC[C@@H]2OCCN[C@H](C)Cc2cccc(F)c2)c1

$$$$
3RQJ_Y2B_B_800
     RDKit          3D

 28 31  0  0  0  0  0  0  0  0999 V2000
   17.1440    8.5210   55.3980 N   0  0  0  0  0  0  0  0  0  0  0  0
   16.9350    9.7660   54.8650 C   0  0  0  0  0  0  0  0  0  0  0  0
   15.7020   10.3580   54.9270 N   0  0  0  0  0  0  0  0  0  0  0  0
   18.0080   10.4120   54.2370 C   0  0  0  0  0  0  0  0  0  0  0  0
   19.2630    9.7840   54.1580 C   0  0  0  0  0  0  0  0  0  0  0  0
   19.4420    8.5150   54.7200 C   0  0  0  0  0  0  0  0  0  0  0  0
   18.3530    7.8930   55.3300 C   0  0  0  0  0  0  0  0  0  0  0  0
   20.4230   10.4700   53.4830 C   0  0  0  0  0  0  0  0  0  0  0  0
   18.5010    6.5110   55.9260 C   0  0  0  0  0  0  0  0  0  0  0  0
   18.1960    3.7090   56.2370 O   0  0  0  0  0  0  0  0  0  0  0  0
   17.6240    3.8110   53.4670 N   0  0  0  0  0  0  0  0  0  0  0  0
   18.4370    2.4660   56.9100 C   0  0  0  0  0  0  0  0  0  0  0  0
   17.3260    2.3090   57.9490 C   0  0  0  0  0  0  0  0  0  0  0  0
   16.0960    1.6660   57.5030 N   0  0  0  0  0  0  0  0  0  0  0  0
   15.0310    1.4510   58.4830 C   0  0  0  0  0  0  0  0  0  0  0  0
   13.7380    1.0130   57.8000 C   0  0  0  0  0  0  0  0  0  0  0  0
   13.9900    2.4910   58.0520 C   0  0  0  0  0  0  0  0  0  0  0  0
   17.3730    5.1440   54.0280 C   0  0  0  0  0  0  0  0  0  0  0  0
   12.5650    0.5550   58.6100 C   0  0  0  0  0  0  0  0  0  0  0  0
   12.0640    1.2500   59.7150 C   0  0  0  0  0  0  0  0  0  0  0  0
   10.9530    0.7710   60.4120 C   0  0  0  0  0  0  0  0  0  0  0  0
   10.5000    1.4550   61.5010 F   0  0  0  0  0  0  0  0  0  0  0  0
   10.3320   -0.4190   60.0250 C   0  0  0  0  0  0  0  0  0  0  0  0
   10.8010   -1.1120   58.8910 C   0  0  0  0  0  0  0  0  0  0  0  0
   11.9090   -0.6130   58.2180 C   0  0  0  0  0  0  0  0  0  0  0  0
   18.6710    5.4720   54.8040 C   0  0  0  0  0  0  0  0  0  0  0  0
   19.1410    4.0950   55.2410 C   0  0  0  0  0  0  0  0  0  0  0  0
   18.8880    3.2490   53.9770 C   0  0  0  0  0  0  0  0  0  0  0  0
  2  1  2  0
  7  1  1  0
  3  2  1  0
  4  2  1  0
  5  4  2  0
  6  5  1  0
  8  5  1  0
  7  6  2  0
  9  7  1  0
 26  9  1  0
 12 10  1  0
 27 10  1  0
 18 11  1  0
 28 11  1  0
 13 12  1  0
 14 13  1  0
 15 14  1  0
 16 15  1  0
 17 15  1  0
 17 16  1  0
 19 16  1  0
 26 18  1  0
 20 19  2  0
 25 19  1  0
 21 20  1  0
 22 21  1  0
 23 21  2  0
 24 23  1  0
 25 24  2  0
 27 26  1  0
 28 27  1  0
A    1
N01
A    2
C02
A    3
N02
A    4
C03
A    5
C04
A    6
C05
A    7
C06
A    8
C07
A    9
C08
A   10
O09
A   11
N1'
A   12
C10
A   13
C11
A   14
N12
A   15
C13
A   16
C14
A   17
C15
A   18
C2'
A   19
C21
A   20
C22
A   21
C23
A   22
F23
A   23
C24
A   24
C25
A   25
C26
A   26
C3'
A   27
C4'
A   28
C5'
M  END
>  <Id>  (59) 
3RQJ_Y2B_B_800

>  <ChainId>  (59) 
B

>  <AsymId>  (59) 
K

>  <SeqNum>  (59) 
800

>  <Name>  (59) 
6-{[(3R,4R)-4-(2-{[(1S,2R)-2-(3-fluorophenyl)cyclopropyl]amino}ethoxy)pyrrolidin-3-yl]methyl}-4-methylpyridin-2-amine

>  <SystematicName>  (59) 
6-[[(3R,4R)-4-[2-[[(1S,2R)-2-(3-fluorophenyl)cyclopropyl]amino]ethoxy]pyrrolidin-3-yl]methyl]-4-methyl-pyridin-2-amine

>  <Synonyms>  (59) 


>  <Type>  (59) 
NON-POLYMER

>  <Formula>  (59) 
C22 H29 F N4 O

>  <ObservedFormula>  (59) 
C22 F N4 O

>  <MolecularWeight>  (59) 
384.49

>  <ModifiedDate>  (59) 
2012-04-27

>  <Parent>  (59) 


>  <OneLetterCode>  (59) 


>  <SubcomponentList>  (59) 


>  <AmbiguousFlag>  (59) 
N

>  <InsertionCode>  (59) 


>  <InstanceId>  (59) 
3RQJ_Y2B_B_800

>  <ChemCompId>  (59) 
Y2B

>  <PdbId>  (59) 
3RQJ

>  <ResidueNumber>  (59) 
800

>  <InChI>  (59) 
InChI=1S/C22H29FN4O/c1-14-7-18(27-22(24)8-14)10-16-12-25-13-21(16)28-6-5-26-20-11-19(20)15-3-2-4-17(23)9-15/h2-4,7-9,16,19-21,25-26H,5-6,10-13H2,1H3,(H2,24,27)/t16-,19-,20+,21+/m1/s1

>  <InChIKey>  (59) 
OPKCBCPSRYBLIJ-DBOLQNLKSA-N

>  <SMILES>  (59) 
Cc1cc(nc(c1)N)C[C@@H]2CNC[C@@H]2OCCN[C@H]3C[C@@H]3c4cccc(c4)F

>  <MissingHeavyAtoms>  (59) 
0

>  <Model>  (59) 
1

>  <AltIds>  (59) 


>  <pKI>  (59) 
7.34

>  <ChemblID>  (59) 
CHEMBL2332793

>  <standardized_canonical_smiles>  (59) 
Cc1cc(N)nc(C[C@@H]2CNC[C@@H]2OCCN[C@H]2C[C@@H]2c2cccc(F)c2)c1

$$$$
3RQL_X2D_B_800
     RDKit          3D

 28 31  0  0  0  0  0  0  0  0999 V2000
   17.1420    8.4000   55.2160 N   0  0  0  0  0  0  0  0  0  0  0  0
   16.9720    9.6340   54.6820 C   0  0  0  0  0  0  0  0  0  0  0  0
   15.7550   10.2130   54.7020 N   0  0  0  0  0  0  0  0  0  0  0  0
   18.0490   10.3030   54.1040 C   0  0  0  0  0  0  0  0  0  0  0  0
   19.3060    9.6940   54.0750 C   0  0  0  0  0  0  0  0  0  0  0  0
   19.4600    8.4280   54.6380 C   0  0  0  0  0  0  0  0  0  0  0  0
   18.3550    7.7930   55.2110 C   0  0  0  0  0  0  0  0  0  0  0  0
   20.4810   10.3950   53.4550 C   0  0  0  0  0  0  0  0  0  0  0  0
   18.4990    6.4030   55.8080 C   0  0  0  0  0  0  0  0  0  0  0  0
   18.1060    3.5510   56.0890 O   0  0  0  0  0  0  0  0  0  0  0  0
   17.4360    3.7740   53.3920 N   0  0  0  0  0  0  0  0  0  0  0  0
   18.4180    2.3660   56.8330 C   0  0  0  0  0  0  0  0  0  0  0  0
   17.3010    2.1770   57.8450 C   0  0  0  0  0  0  0  0  0  0  0  0
   16.0240    1.6670   57.3380 N   0  0  0  0  0  0  0  0  0  0  0  0
   14.9540    1.4750   58.2900 C   0  0  0  0  0  0  0  0  0  0  0  0
   14.1720    0.2300   57.9250 C   0  0  0  0  0  0  0  0  0  0  0  0
   15.2270    0.1710   59.0450 C   0  0  0  0  0  0  0  0  0  0  0  0
   17.2710    5.1370   53.9040 C   0  0  0  0  0  0  0  0  0  0  0  0
   12.8120   -0.0220   58.4920 C   0  0  0  0  0  0  0  0  0  0  0  0
   12.2560    0.7180   59.5320 C   0  0  0  0  0  0  0  0  0  0  0  0
   11.0060    0.3950   60.0200 C   0  0  0  0  0  0  0  0  0  0  0  0
   10.3640    1.3830   61.3600 Cl  0  0  0  0  0  0  0  0  0  0  0  0
   10.2900   -0.6870   59.5410 C   0  0  0  0  0  0  0  0  0  0  0  0
   10.8140   -1.4390   58.4780 C   0  0  0  0  0  0  0  0  0  0  0  0
   12.0800   -1.1090   57.9790 C   0  0  0  0  0  0  0  0  0  0  0  0
   18.6090    5.3810   54.6680 C   0  0  0  0  0  0  0  0  0  0  0  0
   19.0410    3.9940   55.0860 C   0  0  0  0  0  0  0  0  0  0  0  0
   18.7280    3.1970   53.8020 C   0  0  0  0  0  0  0  0  0  0  0  0
  2  1  2  0
  7  1  1  0
  3  2  1  0
  4  2  1  0
  5  4  2  0
  6  5  1  0
  8  5  1  0
  7  6  2  0
  9  7  1  0
 26  9  1  0
 12 10  1  0
 27 10  1  0
 18 11  1  0
 28 11  1  0
 13 12  1  0
 14 13  1  0
 15 14  1  0
 16 15  1  0
 17 15  1  0
 17 16  1  0
 19 16  1  0
 26 18  1  0
 20 19  2  0
 25 19  1  0
 21 20  1  0
 22 21  1  0
 23 21  2  0
 24 23  1  0
 25 24  2  0
 27 26  1  0
 28 27  1  0
A    1
N01
A    2
C02
A    3
N02
A    4
C03
A    5
C04
A    6
C05
A    7
C06
A    8
C07
A    9
C08
A   10
O09
A   11
N1'
A   12
C10
A   13
C11
A   14
N12
A   15
C13
A   16
C14
A   17
C15
A   18
C2'
A   19
C21
A   20
C22
A   21
C23
A   22
CL23
A   23
C24
A   24
C25
A   25
C26
A   26
C3'
A   27
C4'
A   28
C5'
M  END
>  <Id>  (60) 
3RQL_X2D_B_800

>  <ChainId>  (60) 
B

>  <AsymId>  (60) 
J

>  <SeqNum>  (60) 
800

>  <Name>  (60) 
6-{[(3R,4R)-4-(2-{[(1R,2S)-2-(3-chlorophenyl)cyclopropyl]amino}ethoxy)pyrrolidin-3-yl]methyl}-4-methylpyridin-2-amine

>  <SystematicName>  (60) 
6-[[(3R,4R)-4-[2-[[(1R,2S)-2-(3-chlorophenyl)cyclopropyl]amino]ethoxy]pyrrolidin-3-yl]methyl]-4-methyl-pyridin-2-amine

>  <Synonyms>  (60) 


>  <Type>  (60) 
NON-POLYMER

>  <Formula>  (60) 
C22 H29 Cl N4 O

>  <ObservedFormula>  (60) 
C22 Cl N4 O

>  <MolecularWeight>  (60) 
400.945

>  <ModifiedDate>  (60) 
2012-04-27

>  <Parent>  (60) 


>  <OneLetterCode>  (60) 


>  <SubcomponentList>  (60) 


>  <AmbiguousFlag>  (60) 
N

>  <InsertionCode>  (60) 


>  <InstanceId>  (60) 
3RQL_X2D_B_800

>  <ChemCompId>  (60) 
X2D

>  <PdbId>  (60) 
3RQL

>  <ResidueNumber>  (60) 
800

>  <InChI>  (60) 
InChI=1S/C22H29ClN4O/c1-14-7-18(27-22(24)8-14)10-16-12-25-13-21(16)28-6-5-26-20-11-19(20)15-3-2-4-17(23)9-15/h2-4,7-9,16,19-21,25-26H,5-6,10-13H2,1H3,(H2,24,27)/t16-,19+,20-,21+/m1/s1

>  <InChIKey>  (60) 
SLFXGXAWJWFFCO-RCOXNQKVSA-N

>  <SMILES>  (60) 
Cc1cc(nc(c1)N)C[C@@H]2CNC[C@@H]2OCCN[C@@H]3C[C@H]3c4cccc(c4)Cl

>  <MissingHeavyAtoms>  (60) 
0

>  <Model>  (60) 
1

>  <AltIds>  (60) 


>  <pKI>  (60) 
6.85

>  <ChemblID>  (60) 
CHEMBL2332791

>  <standardized_canonical_smiles>  (60) 
Cc1cc(N)nc(C[C@@H]2CNC[C@@H]2OCCNC2CC2c2cccc(Cl)c2)c1

$$$$
3RQK_X2C_B_800
     RDKit          3D

 28 31  0  0  0  0  0  0  0  0999 V2000
   17.1460    8.5740   55.4410 N   0  0  0  0  0  0  0  0  0  0  0  0
   16.8750    9.8010   54.9120 C   0  0  0  0  0  0  0  0  0  0  0  0
   15.6300   10.3680   54.9850 N   0  0  0  0  0  0  0  0  0  0  0  0
   17.9140   10.5130   54.3170 C   0  0  0  0  0  0  0  0  0  0  0  0
   19.2130    9.9770   54.2350 C   0  0  0  0  0  0  0  0  0  0  0  0
   19.4600    8.7090   54.7710 C   0  0  0  0  0  0  0  0  0  0  0  0
   18.4020    8.0210   55.3890 C   0  0  0  0  0  0  0  0  0  0  0  0
   20.2920   10.7810   53.5510 C   0  0  0  0  0  0  0  0  0  0  0  0
   18.6310    6.6320   55.9640 C   0  0  0  0  0  0  0  0  0  0  0  0
   18.4050    3.7430   56.3770 O   0  0  0  0  0  0  0  0  0  0  0  0
   17.4770    3.9170   53.6900 N   0  0  0  0  0  0  0  0  0  0  0  0
   18.6310    2.4810   57.0100 C   0  0  0  0  0  0  0  0  0  0  0  0
   17.5090    2.3350   58.0250 C   0  0  0  0  0  0  0  0  0  0  0  0
   16.2290    1.7520   57.5460 N   0  0  0  0  0  0  0  0  0  0  0  0
   15.2050    1.4920   58.5550 C   0  0  0  0  0  0  0  0  0  0  0  0
   14.1200    0.5490   58.0140 C   0  0  0  0  0  0  0  0  0  0  0  0
   15.2260    0.0340   58.9490 C   0  0  0  0  0  0  0  0  0  0  0  0
   17.4020    5.3070   54.1280 C   0  0  0  0  0  0  0  0  0  0  0  0
   12.7930    0.2650   58.6950 C   0  0  0  0  0  0  0  0  0  0  0  0
   12.2020    1.0290   59.7020 C   0  0  0  0  0  0  0  0  0  0  0  0
   10.9900    0.6490   60.2660 C   0  0  0  0  0  0  0  0  0  0  0  0
   10.3190   -0.4950   59.8280 C   0  0  0  0  0  0  0  0  0  0  0  0
   10.8640   -1.2760   58.8040 C   0  0  0  0  0  0  0  0  0  0  0  0
   12.0890   -0.8690   58.2600 C   0  0  0  0  0  0  0  0  0  0  0  0
   10.3840    1.4720   61.3630 C   0  0  0  0  0  0  0  0  0  0  0  0
   18.7430    5.5620   54.8520 C   0  0  0  0  0  0  0  0  0  0  0  0
   19.1930    4.1520   55.2580 C   0  0  0  0  0  0  0  0  0  0  0  0
   18.7490    3.3020   54.0740 C   0  0  0  0  0  0  0  0  0  0  0  0
  2  1  2  0
  7  1  1  0
  3  2  1  0
  4  2  1  0
  5  4  2  0
  6  5  1  0
  8  5  1  0
  7  6  2  0
  9  7  1  0
 26  9  1  0
 12 10  1  0
 27 10  1  0
 18 11  1  0
 28 11  1  0
 13 12  1  0
 14 13  1  0
 15 14  1  0
 16 15  1  0
 17 15  1  0
 17 16  1  0
 19 16  1  0
 26 18  1  0
 20 19  2  0
 24 19  1  0
 21 20  1  0
 22 21  2  0
 25 21  1  0
 23 22  1  0
 24 23  2  0
 27 26  1  0
 28 27  1  0
A    1
N01
A    2
C02
A    3
N02
A    4
C03
A    5
C04
A    6
C05
A    7
C06
A    8
C07
A    9
C08
A   10
O09
A   11
N1'
A   12
C10
A   13
C11
A   14
N12
A   15
C13
A   16
C14
A   17
C15
A   18
C2'
A   19
C21
A   20
C22
A   21
C23
A   22
C24
A   23
C25
A   24
C26
A   25
C27
A   26
C3'
A   27
C4'
A   28
C5'
M  END
>  <Id>  (61) 
3RQK_X2C_B_800

>  <ChainId>  (61) 
B

>  <AsymId>  (61) 
J

>  <SeqNum>  (61) 
800

>  <Name>  (61) 
4-methyl-6-{[(3R,4R)-4-(2-{[(1R,2S)-2-(3-methylphenyl)cyclopropyl]amino}ethoxy)pyrrolidin-3-yl]methyl}pyridin-2-amine

>  <SystematicName>  (61) 
4-methyl-6-[[(3R,4R)-4-[2-[[(1R,2S)-2-(3-methylphenyl)cyclopropyl]amino]ethoxy]pyrrolidin-3-yl]methyl]pyridin-2-amine

>  <Synonyms>  (61) 


>  <Type>  (61) 
NON-POLYMER

>  <Formula>  (61) 
C23 H32 N4 O

>  <ObservedFormula>  (61) 
C23 N4 O

>  <MolecularWeight>  (61) 
380.526

>  <ModifiedDate>  (61) 
2012-04-27

>  <Parent>  (61) 


>  <OneLetterCode>  (61) 


>  <SubcomponentList>  (61) 


>  <AmbiguousFlag>  (61) 
N

>  <InsertionCode>  (61) 


>  <InstanceId>  (61) 
3RQK_X2C_B_800

>  <ChemCompId>  (61) 
X2C

>  <PdbId>  (61) 
3RQK

>  <ResidueNumber>  (61) 
800

>  <InChI>  (61) 
InChI=1S/C23H32N4O/c1-15-4-3-5-17(8-15)20-12-21(20)26-6-7-28-22-14-25-13-18(22)11-19-9-16(2)10-23(24)27-19/h3-5,8-10,18,20-22,25-26H,6-7,11-14H2,1-2H3,(H2,24,27)/t18-,20+,21-,22+/m1/s1

>  <InChIKey>  (61) 
AMEMBWOWTMXVHT-ZDFPQIBNSA-N

>  <SMILES>  (61) 
Cc1cccc(c1)[C@@H]2C[C@H]2NCCO[C@H]3CNC[C@H]3Cc4cc(cc(n4)N)C

>  <MissingHeavyAtoms>  (61) 
0

>  <Model>  (61) 
1

>  <AltIds>  (61) 


>  <pKI>  (61) 
6.76

>  <ChemblID>  (61) 
CHEMBL2332792

>  <standardized_canonical_smiles>  (61) 
Cc1cccc(C2CC2NCCO[C@H]2CNC[C@H]2Cc2cc(C)cc(N)n2)c1

$$$$
4JSJ_QJ7_B_803
     RDKit          3D

 27 29  0  0  0  0  0  0  0  0999 V2000
   19.5350   12.8440   53.1180 F   0  0  0  0  0  0  0  0  0  0  0  0
   19.8970   11.5520   53.3090 C   0  0  0  0  0  0  0  0  0  0  0  0
   21.2450   11.2070   53.2100 C   0  0  0  0  0  0  0  0  0  0  0  0
   21.6510    9.8880   53.4010 C   0  0  0  0  0  0  0  0  0  0  0  0
   20.7100    8.9020   53.6930 C   0  0  0  0  0  0  0  0  0  0  0  0
   18.9470   10.5670   53.6100 C   0  0  0  0  0  0  0  0  0  0  0  0
   19.3590    9.2440   53.7970 C   0  0  0  0  0  0  0  0  0  0  0  0
   18.3540    8.1600   54.1150 C   0  0  0  0  0  0  0  0  0  0  0  0
   18.5300    7.8020   55.5780 C   0  0  0  0  0  0  0  0  0  0  0  0
   17.5560    6.8380   56.0600 N   0  0  0  0  0  0  0  0  0  0  0  0
   17.7410    6.4370   57.4430 C   0  0  0  0  0  0  0  0  0  0  0  0
   17.4300    4.9740   57.5280 C   0  0  0  0  0  0  0  0  0  0  0  0
   16.1330    4.5690   57.8810 C   0  0  0  0  0  0  0  0  0  0  0  0
   18.4340    4.0390   57.2100 C   0  0  0  0  0  0  0  0  0  0  0  0
   18.1940    2.7250   57.2770 N   0  0  0  0  0  0  0  0  0  0  0  0
   16.9520    2.2950   57.6400 C   0  0  0  0  0  0  0  0  0  0  0  0
   15.8900    3.1930   57.9340 C   0  0  0  0  0  0  0  0  0  0  0  0
   14.6180    2.7670   58.3050 O   0  0  0  0  0  0  0  0  0  0  0  0
   14.1220    1.4660   57.9800 C   0  0  0  0  0  0  0  0  0  0  0  0
   12.8600    1.0180   58.7340 C   0  0  0  0  0  0  0  0  0  0  0  0
   12.3210   -0.1590   58.3580 N   0  0  0  0  0  0  0  0  0  0  0  0
   11.2480   -0.6870   58.9640 C   0  0  0  0  0  0  0  0  0  0  0  0
   10.8260   -1.8880   58.5120 N   0  0  0  0  0  0  0  0  0  0  0  0
   10.6550   -0.0150   60.0490 C   0  0  0  0  0  0  0  0  0  0  0  0
   11.1730    1.2280   60.4490 C   0  0  0  0  0  0  0  0  0  0  0  0
   12.2830    1.7490   59.7950 C   0  0  0  0  0  0  0  0  0  0  0  0
   10.5730    2.0280   61.5890 C   0  0  0  0  0  0  0  0  0  0  0  0
  2  1  1  0
  3  2  2  0
  6  2  1  0
  4  3  1  0
  5  4  2  0
  7  5  1  0
  7  6  2  0
  8  7  1  0
  9  8  1  0
 10  9  1  0
 11 10  1  0
 12 11  1  0
 13 12  2  0
 14 12  1  0
 17 13  1  0
 15 14  2  0
 16 15  1  0
 17 16  2  0
 18 17  1  0
 19 18  1  0
 20 19  1  0
 21 20  2  0
 26 20  1  0
 22 21  1  0
 23 22  1  0
 24 22  2  0
 25 24  1  0
 26 25  2  0
 27 25  1  0
A    1
F23
A    2
C23
A    3
C24
A    4
C25
A    5
C26
A    6
C22
A    7
C21
A    8
C20
A    9
C19
A   10
N18
A   11
C17
A   12
C15
A   13
C14
A   14
C16
A   15
N11
A   16
C12
A   17
C13
A   18
O09
A   19
C08
A   20
C06
A   21
N01
A   22
C02
A   23
N02
A   24
C03
A   25
C04
A   26
C05
A   27
C07
M  END
>  <Id>  (62) 
4JSJ_QJ7_B_803

>  <ChainId>  (62) 
B

>  <AsymId>  (62) 
J

>  <SeqNum>  (62) 
803

>  <Name>  (62) 
6-({[5-({[2-(3-fluorophenyl)ethyl]amino}methyl)pyridin-3-yl]oxy}methyl)-4-methylpyridin-2-amine

>  <SystematicName>  (62) 
6-[[5-[[2-(3-fluorophenyl)ethylamino]methyl]pyridin-3-yl]oxymethyl]-4-methyl-pyridin-2-amine

>  <Synonyms>  (62) 


>  <Type>  (62) 
NON-POLYMER

>  <Formula>  (62) 
C21 H23 F N4 O

>  <ObservedFormula>  (62) 
C21 F N4 O

>  <MolecularWeight>  (62) 
366.432

>  <ModifiedDate>  (62) 
2013-08-02

>  <Parent>  (62) 


>  <OneLetterCode>  (62) 


>  <SubcomponentList>  (62) 


>  <AmbiguousFlag>  (62) 
N

>  <InsertionCode>  (62) 


>  <InstanceId>  (62) 
4JSJ_QJ7_B_803

>  <ChemCompId>  (62) 
QJ7

>  <PdbId>  (62) 
4JSJ

>  <ResidueNumber>  (62) 
803

>  <InChI>  (62) 
InChI=1S/C21H23FN4O/c1-15-7-19(26-21(23)8-15)14-27-20-10-17(12-25-13-20)11-24-6-5-16-3-2-4-18(22)9-16/h2-4,7-10,12-13,24H,5-6,11,14H2,1H3,(H2,23,26)

>  <InChIKey>  (62) 
IGLNPZZNPBQOMM-UHFFFAOYSA-N

>  <SMILES>  (62) 
Cc1cc(nc(c1)N)COc2cc(cnc2)CNCCc3cccc(c3)F

>  <MissingHeavyAtoms>  (62) 
0

>  <Model>  (62) 
1

>  <AltIds>  (62) 


>  <pKI>  (62) 
6.85

>  <ChemblID>  (62) 
CHEMBL2414437

>  <standardized_canonical_smiles>  (62) 
Cc1cc(N)nc(COc2cncc(CNCCc3cccc(F)c3)c2)c1

$$$$
4JSI_Q05_B_803
     RDKit          3D

 27 29  0  0  0  0  0  0  0  0999 V2000
   22.0550    6.1160   53.3340 F   0  0  0  0  0  0  0  0  0  0  0  0
   21.1460    7.0530   53.6920 C   0  0  0  0  0  0  0  0  0  0  0  0
   21.2920    8.4010   53.3270 C   0  0  0  0  0  0  0  0  0  0  0  0
   20.3400    9.3590   53.7050 C   0  0  0  0  0  0  0  0  0  0  0  0
   20.0400    6.6760   54.4420 C   0  0  0  0  0  0  0  0  0  0  0  0
   19.0880    7.6290   54.8140 C   0  0  0  0  0  0  0  0  0  0  0  0
   19.2300    8.9680   54.4510 C   0  0  0  0  0  0  0  0  0  0  0  0
   17.8970    7.1920   55.6220 C   0  0  0  0  0  0  0  0  0  0  0  0
   17.3020    5.9210   55.0020 C   0  0  0  0  0  0  0  0  0  0  0  0
   17.6290    4.6960   55.7140 N   0  0  0  0  0  0  0  0  0  0  0  0
   17.5710    4.6440   57.1710 C   0  0  0  0  0  0  0  0  0  0  0  0
   16.1620    4.9950   57.5950 C   0  0  0  0  0  0  0  0  0  0  0  0
   15.8710    6.2590   58.1030 C   0  0  0  0  0  0  0  0  0  0  0  0
   14.5550    6.5560   58.4750 C   0  0  0  0  0  0  0  0  0  0  0  0
   13.5310    5.5970   58.3410 C   0  0  0  0  0  0  0  0  0  0  0  0
   15.1590    4.0350   57.4400 C   0  0  0  0  0  0  0  0  0  0  0  0
   13.8510    4.3250   57.8250 C   0  0  0  0  0  0  0  0  0  0  0  0
   12.8710    3.3700   57.6970 O   0  0  0  0  0  0  0  0  0  0  0  0
   13.1270    1.9700   57.8020 C   0  0  0  0  0  0  0  0  0  0  0  0
   12.1350    1.2430   58.6940 C   0  0  0  0  0  0  0  0  0  0  0  0
   11.7930   -0.0240   58.3630 N   0  0  0  0  0  0  0  0  0  0  0  0
   10.8680   -0.7100   59.0700 C   0  0  0  0  0  0  0  0  0  0  0  0
   10.5760   -1.9390   58.6050 N   0  0  0  0  0  0  0  0  0  0  0  0
   10.2860   -0.1660   60.2330 C   0  0  0  0  0  0  0  0  0  0  0  0
   10.6570    1.1340   60.6150 C   0  0  0  0  0  0  0  0  0  0  0  0
   11.5610    1.8420   59.8260 C   0  0  0  0  0  0  0  0  0  0  0  0
   10.1060    1.8210   61.8390 C   0  0  0  0  0  0  0  0  0  0  0  0
  2  1  1  0
  3  2  2  0
  5  2  1  0
  4  3  1  0
  7  4  2  0
  6  5  2  0
  7  6  1  0
  8  6  1  0
  9  8  1  0
 10  9  1  0
 11 10  1  0
 12 11  1  0
 13 12  2  0
 16 12  1  0
 14 13  1  0
 15 14  2  0
 17 15  1  0
 17 16  2  0
 18 17  1  0
 19 18  1  0
 20 19  1  0
 21 20  2  0
 26 20  1  0
 22 21  1  0
 23 22  1  0
 24 22  2  0
 25 24  1  0
 26 25  2  0
 27 25  1  0
A    1
F23
A    2
C23
A    3
C24
A    4
C25
A    5
C22
A    6
C21
A    7
C26
A    8
C20
A    9
C19
A   10
N18
A   11
C17
A   12
C15
A   13
C14
A   14
C13
A   15
C12
A   16
C16
A   17
C11
A   18
O09
A   19
C08
A   20
C06
A   21
N01
A   22
C02
A   23
N02
A   24
C03
A   25
C04
A   26
C05
A   27
C07
M  END
>  <Id>  (63) 
4JSI_Q05_B_803

>  <ChainId>  (63) 
B

>  <AsymId>  (63) 
J

>  <SeqNum>  (63) 
803

>  <Name>  (63) 
6-{[3-({[2-(3-fluorophenyl)ethyl]amino}methyl)phenoxy]methyl}-4-methylpyridin-2-amine

>  <SystematicName>  (63) 
6-[[3-[[2-(3-fluorophenyl)ethylamino]methyl]phenoxy]methyl]-4-methyl-pyridin-2-amine

>  <Synonyms>  (63) 


>  <Type>  (63) 
NON-POLYMER

>  <Formula>  (63) 
C22 H24 F N3 O

>  <ObservedFormula>  (63) 
C22 F N3 O

>  <MolecularWeight>  (63) 
365.444

>  <ModifiedDate>  (63) 
2013-08-02

>  <Parent>  (63) 


>  <OneLetterCode>  (63) 


>  <SubcomponentList>  (63) 


>  <AmbiguousFlag>  (63) 
N

>  <InsertionCode>  (63) 


>  <InstanceId>  (63) 
4JSI_Q05_B_803

>  <ChemCompId>  (63) 
Q05

>  <PdbId>  (63) 
4JSI

>  <ResidueNumber>  (63) 
803

>  <InChI>  (63) 
InChI=1S/C22H24FN3O/c1-16-10-20(26-22(24)11-16)15-27-21-7-3-5-18(13-21)14-25-9-8-17-4-2-6-19(23)12-17/h2-7,10-13,25H,8-9,14-15H2,1H3,(H2,24,26)

>  <InChIKey>  (63) 
DDZKIKXHCIUETL-UHFFFAOYSA-N

>  <SMILES>  (63) 
Cc1cc(nc(c1)N)COc2cccc(c2)CNCCc3cccc(c3)F

>  <MissingHeavyAtoms>  (63) 
0

>  <Model>  (63) 
1

>  <AltIds>  (63) 


>  <pKI>  (63) 
7.4

>  <ChemblID>  (63) 
CHEMBL2414435

>  <standardized_canonical_smiles>  (63) 
Cc1cc(N)nc(COc2cccc(CNCCc3cccc(F)c3)c2)c1

$$$$
4JSH_Q15_B_804
     RDKit          3D

 24 26  0  0  0  0  0  0  0  0999 V2000
   10.7780   -2.0990   58.5080 N   0  0  0  0  0  0  0  0  0  0  0  0
   11.1270   -0.8700   58.9500 C   0  0  0  0  0  0  0  0  0  0  0  0
   10.6490   -0.3630   60.1530 C   0  0  0  0  0  0  0  0  0  0  0  0
   10.9930    0.9160   60.5640 C   0  0  0  0  0  0  0  0  0  0  0  0
   10.4790    1.4900   61.8630 C   0  0  0  0  0  0  0  0  0  0  0  0
   11.9430   -0.1260   58.1970 N   0  0  0  0  0  0  0  0  0  0  0  0
   12.3120    1.1270   58.5710 C   0  0  0  0  0  0  0  0  0  0  0  0
   11.8360    1.6700   59.7640 C   0  0  0  0  0  0  0  0  0  0  0  0
   13.2590    1.9240   57.6740 C   0  0  0  0  0  0  0  0  0  0  0  0
   12.9700    3.3140   57.7380 O   0  0  0  0  0  0  0  0  0  0  0  0
   13.9220    4.2860   57.5280 C   0  0  0  0  0  0  0  0  0  0  0  0
   15.1540    4.0460   56.8980 C   0  0  0  0  0  0  0  0  0  0  0  0
   16.0540    5.1020   56.7050 C   0  0  0  0  0  0  0  0  0  0  0  0
   15.7190    6.3810   57.1560 C   0  0  0  0  0  0  0  0  0  0  0  0
   14.4940    6.6280   57.7810 C   0  0  0  0  0  0  0  0  0  0  0  0
   13.5970    5.5790   57.9650 C   0  0  0  0  0  0  0  0  0  0  0  0
   17.2640    4.9240   56.0720 O   0  0  0  0  0  0  0  0  0  0  0  0
   17.9080    6.0530   55.4500 C   0  0  0  0  0  0  0  0  0  0  0  0
   19.3580    5.8100   54.9790 C   0  0  0  0  0  0  0  0  0  0  0  0
   19.3850    5.8060   53.4400 C   0  0  0  0  0  0  0  0  0  0  0  0
   19.5850    4.4270   52.8070 C   0  0  0  0  0  0  0  0  0  0  0  0
   19.1160    3.3340   53.6450 N   0  0  0  0  0  0  0  0  0  0  0  0
   19.6340    3.2240   55.0030 C   0  0  0  0  0  0  0  0  0  0  0  0
   20.0400    4.5750   55.6120 C   0  0  0  0  0  0  0  0  0  0  0  0
  2  1  1  0
  3  2  2  0
  6  2  1  0
  4  3  1  0
  5  4  1  0
  8  4  2  0
  7  6  2  0
  8  7  1  0
  9  7  1  0
 10  9  1  0
 11 10  1  0
 12 11  2  0
 16 11  1  0
 13 12  1  0
 14 13  2  0
 17 13  1  0
 15 14  1  0
 16 15  2  0
 18 17  1  0
 19 18  1  0
 20 19  1  0
 24 19  1  0
 21 20  1  0
 22 21  1  0
 23 22  1  0
 24 23  1  0
A    1
N02
A    2
C02
A    3
C03
A    4
C04
A    5
C07
A    6
N01
A    7
C06
A    8
C05
A    9
C08
A   10
O09
A   11
C11
A   12
C16
A   13
C15
A   14
C14
A   15
C13
A   16
C12
A   17
O28
A   18
C27
A   19
C24
A   20
C23
A   21
C22
A   22
N21
A   23
C26
A   24
C25
M  END
>  <Id>  (64) 
4JSH_Q15_B_804

>  <ChainId>  (64) 
B

>  <AsymId>  (64) 
K

>  <SeqNum>  (64) 
804

>  <Name>  (64) 
4-methyl-6-{[3-(piperidin-4-ylmethoxy)phenoxy]methyl}pyridin-2-amine

>  <SystematicName>  (64) 
4-methyl-6-[[3-(piperidin-4-ylmethoxy)phenoxy]methyl]pyridin-2-amine

>  <Synonyms>  (64) 


>  <Type>  (64) 
NON-POLYMER

>  <Formula>  (64) 
C19 H25 N3 O2

>  <ObservedFormula>  (64) 
C19 N3 O2

>  <MolecularWeight>  (64) 
327.421

>  <ModifiedDate>  (64) 
2013-08-02

>  <Parent>  (64) 


>  <OneLetterCode>  (64) 


>  <SubcomponentList>  (64) 


>  <AmbiguousFlag>  (64) 
N

>  <InsertionCode>  (64) 


>  <InstanceId>  (64) 
4JSH_Q15_B_804

>  <ChemCompId>  (64) 
Q15

>  <PdbId>  (64) 
4JSH

>  <ResidueNumber>  (64) 
804

>  <InChI>  (64) 
InChI=1S/C19H25N3O2/c1-14-9-16(22-19(20)10-14)13-24-18-4-2-3-17(11-18)23-12-15-5-7-21-8-6-15/h2-4,9-11,15,21H,5-8,12-13H2,1H3,(H2,20,22)

>  <InChIKey>  (64) 
PXVODVINMZHSGT-UHFFFAOYSA-N

>  <SMILES>  (64) 
Cc1cc(nc(c1)N)COc2cccc(c2)OCC3CCNCC3

>  <MissingHeavyAtoms>  (64) 
0

>  <Model>  (64) 
1

>  <AltIds>  (64) 


>  <pKI>  (64) 
6.93

>  <ChemblID>  (64) 
CHEMBL2414432

>  <standardized_canonical_smiles>  (64) 
Cc1cc(N)nc(COc2cccc(OCC3CCNCC3)c2)c1

$$$$
4JSG_Q10_B_803
     RDKit          3D

 21 22  0  0  0  0  0  0  0  0999 V2000
   21.5080    4.7420   57.6940 N   0  0  0  0  0  0  0  0  0  0  0  0
   21.0970    5.4240   56.4630 C   0  0  0  0  0  0  0  0  0  0  0  0
   20.1590    4.5520   55.6250 C   0  0  0  0  0  0  0  0  0  0  0  0
   19.0000    5.3870   55.0660 C   0  0  0  0  0  0  0  0  0  0  0  0
   17.7300    4.7240   55.1810 O   0  0  0  0  0  0  0  0  0  0  0  0
   16.9810    4.7130   56.3500 C   0  0  0  0  0  0  0  0  0  0  0  0
   17.4890    5.3480   57.5000 C   0  0  0  0  0  0  0  0  0  0  0  0
   16.7560    5.3400   58.6730 C   0  0  0  0  0  0  0  0  0  0  0  0
   15.5080    4.6930   58.6750 C   0  0  0  0  0  0  0  0  0  0  0  0
   15.7210    4.0660   56.3890 C   0  0  0  0  0  0  0  0  0  0  0  0
   14.9530    4.0390   57.5600 C   0  0  0  0  0  0  0  0  0  0  0  0
   13.6980    3.4020   57.6710 O   0  0  0  0  0  0  0  0  0  0  0  0
   13.6270    1.9530   57.8130 C   0  0  0  0  0  0  0  0  0  0  0  0
   12.5060    1.2420   58.6020 C   0  0  0  0  0  0  0  0  0  0  0  0
   12.1050   -0.0030   58.2000 N   0  0  0  0  0  0  0  0  0  0  0  0
   11.1290   -0.7040   58.8420 C   0  0  0  0  0  0  0  0  0  0  0  0
   10.7410   -1.9130   58.3740 N   0  0  0  0  0  0  0  0  0  0  0  0
   10.5170   -0.1810   59.9850 C   0  0  0  0  0  0  0  0  0  0  0  0
   10.9240    1.0670   60.4390 C   0  0  0  0  0  0  0  0  0  0  0  0
   11.9170    1.7780   59.7510 C   0  0  0  0  0  0  0  0  0  0  0  0
   10.2760    1.6620   61.6650 C   0  0  0  0  0  0  0  0  0  0  0  0
  2  1  1  0
  3  2  1  0
  4  3  1  0
  5  4  1  0
  6  5  1  0
  7  6  2  0
 10  6  1  0
  8  7  1  0
  9  8  2  0
 11  9  1  0
 11 10  2  0
 12 11  1  0
 13 12  1  0
 14 13  1  0
 15 14  2  0
 20 14  1  0
 16 15  1  0
 17 16  1  0
 18 16  2  0
 19 18  1  0
 20 19  2  0
 21 19  1  0
A    1
N14
A    2
C13
A    3
C12
A    4
C11
A    5
O10
A    6
C25
A    7
C24
A    8
C23
A    9
C22
A   10
C26
A   11
C21
A   12
O09
A   13
C08
A   14
C06
A   15
N01
A   16
C02
A   17
N02
A   18
C03
A   19
C04
A   20
C05
A   21
C07
M  END
>  <Id>  (65) 
4JSG_Q10_B_803

>  <ChainId>  (65) 
B

>  <AsymId>  (65) 
J

>  <SeqNum>  (65) 
803

>  <Name>  (65) 
6-{[3-(3-aminopropoxy)phenoxy]methyl}-4-methylpyridin-2-amine

>  <SystematicName>  (65) 
6-[[3-(3-azanylpropoxy)phenoxy]methyl]-4-methyl-pyridin-2-amine

>  <Synonyms>  (65) 


>  <Type>  (65) 
NON-POLYMER

>  <Formula>  (65) 
C16 H21 N3 O2

>  <ObservedFormula>  (65) 
C16 N3 O2

>  <MolecularWeight>  (65) 
287.357

>  <ModifiedDate>  (65) 
2013-08-02

>  <Parent>  (65) 


>  <OneLetterCode>  (65) 


>  <SubcomponentList>  (65) 


>  <AmbiguousFlag>  (65) 
N

>  <InsertionCode>  (65) 


>  <InstanceId>  (65) 
4JSG_Q10_B_803

>  <ChemCompId>  (65) 
Q10

>  <PdbId>  (65) 
4JSG

>  <ResidueNumber>  (65) 
803

>  <InChI>  (65) 
InChI=1S/C16H21N3O2/c1-12-8-13(19-16(18)9-12)11-21-15-5-2-4-14(10-15)20-7-3-6-17/h2,4-5,8-10H,3,6-7,11,17H2,1H3,(H2,18,19)

>  <InChIKey>  (65) 
USONDHXIUNXLQT-UHFFFAOYSA-N

>  <SMILES>  (65) 
Cc1cc(nc(c1)N)COc2cccc(c2)OCCCN

>  <MissingHeavyAtoms>  (65) 
0

>  <Model>  (65) 
1

>  <AltIds>  (65) 


>  <pKI>  (65) 
7.22

>  <ChemblID>  (65) 
CHEMBL2414429

>  <standardized_canonical_smiles>  (65) 
Cc1cc(N)nc(COc2cccc(OCCCN)c2)c1

$$$$
4JSF_QJ4_B_803
     RDKit          3D

 23 24  0  0  0  0  0  0  0  0999 V2000
   16.1590    9.8930   54.9550 N   0  0  0  0  0  0  0  0  0  0  0  0
   17.2870    9.1700   54.7900 C   0  0  0  0  0  0  0  0  0  0  0  0
   18.3860    9.7870   54.2140 C   0  0  0  0  0  0  0  0  0  0  0  0
   19.5450    9.0570   54.0350 C   0  0  0  0  0  0  0  0  0  0  0  0
   20.7510    9.7080   53.4200 C   0  0  0  0  0  0  0  0  0  0  0  0
   19.5940    7.7290   54.4300 C   0  0  0  0  0  0  0  0  0  0  0  0
   17.3510    7.8710   55.1800 N   0  0  0  0  0  0  0  0  0  0  0  0
   18.4760    7.1390   54.9990 C   0  0  0  0  0  0  0  0  0  0  0  0
   18.5780    5.6830   55.4290 C   0  0  0  0  0  0  0  0  0  0  0  0
   17.3470    4.8580   55.0840 C   0  0  0  0  0  0  0  0  0  0  0  0
   17.2020    3.7360   56.1130 C   0  0  0  0  0  0  0  0  0  0  0  0
   15.8030    3.7360   56.7290 C   0  0  0  0  0  0  0  0  0  0  0  0
   15.7260    2.8050   57.9310 C   0  0  0  0  0  0  0  0  0  0  0  0
   14.6970    1.6630   57.9130 C   0  0  0  0  0  0  0  0  0  0  0  0
   13.2580    2.1970   57.7680 C   0  0  0  0  0  0  0  0  0  0  0  0
   12.2870    1.3080   58.5510 C   0  0  0  0  0  0  0  0  0  0  0  0
   11.9890    0.0350   58.1650 N   0  0  0  0  0  0  0  0  0  0  0  0
   11.1020   -0.7150   58.8710 C   0  0  0  0  0  0  0  0  0  0  0  0
   10.8160   -1.9410   58.4110 N   0  0  0  0  0  0  0  0  0  0  0  0
   10.4920   -0.2340   60.0430 C   0  0  0  0  0  0  0  0  0  0  0  0
   10.8210    1.0490   60.4700 C   0  0  0  0  0  0  0  0  0  0  0  0
   11.7070    1.8010   59.7120 C   0  0  0  0  0  0  0  0  0  0  0  0
   10.2450    1.6760   61.7170 C   0  0  0  0  0  0  0  0  0  0  0  0
  2  1  1  0
  3  2  2  0
  7  2  1  0
  4  3  1  0
  5  4  1  0
  6  4  2  0
  8  6  1  0
  8  7  2  0
  9  8  1  0
 10  9  1  0
 11 10  1  0
 12 11  1  0
 13 12  1  0
 14 13  1  0
 15 14  1  0
 16 15  1  0
 17 16  2  0
 22 16  1  0
 18 17  1  0
 19 18  1  0
 20 18  2  0
 21 20  1  0
 22 21  2  0
 23 21  1  0
A    1
N22
A    2
C22
A    3
C23
A    4
C24
A    5
C27
A    6
C25
A    7
N21
A    8
C26
A    9
C14
A   10
C13
A   11
C12
A   12
C11
A   13
C10
A   14
C09
A   15
C08
A   16
C06
A   17
N01
A   18
C02
A   19
N02
A   20
C03
A   21
C04
A   22
C05
A   23
C07
M  END
>  <Id>  (66) 
4JSF_QJ4_B_803

>  <ChainId>  (66) 
B

>  <AsymId>  (66) 
J

>  <SeqNum>  (66) 
803

>  <Name>  (66) 
6,6'-heptane-1,7-diylbis(4-methylpyridin-2-amine)

>  <SystematicName>  (66) 
6-[7-(6-azanyl-4-methyl-pyridin-2-yl)heptyl]-4-methyl-pyridin-2-amine

>  <Synonyms>  (66) 


>  <Type>  (66) 
NON-POLYMER

>  <Formula>  (66) 
C19 H28 N4

>  <ObservedFormula>  (66) 
C19 N4

>  <MolecularWeight>  (66) 
312.452

>  <ModifiedDate>  (66) 
2013-08-02

>  <Parent>  (66) 


>  <OneLetterCode>  (66) 


>  <SubcomponentList>  (66) 


>  <AmbiguousFlag>  (66) 
N

>  <InsertionCode>  (66) 


>  <InstanceId>  (66) 
4JSF_QJ4_B_803

>  <ChemCompId>  (66) 
QJ4

>  <PdbId>  (66) 
4JSF

>  <ResidueNumber>  (66) 
803

>  <InChI>  (66) 
InChI=1S/C19H28N4/c1-14-10-16(22-18(20)12-14)8-6-4-3-5-7-9-17-11-15(2)13-19(21)23-17/h10-13H,3-9H2,1-2H3,(H2,20,22)(H2,21,23)

>  <InChIKey>  (66) 
FSVLONGGRYPEKX-UHFFFAOYSA-N

>  <SMILES>  (66) 
Cc1cc(nc(c1)N)CCCCCCCc2cc(cc(n2)N)C

>  <MissingHeavyAtoms>  (66) 
0

>  <Model>  (66) 
1

>  <AltIds>  (66) 


>  <pKI>  (66) 
7.07

>  <ChemblID>  (66) 
CHEMBL2414428

>  <standardized_canonical_smiles>  (66) 
Cc1cc(N)nc(CCCCCCCc2cc(C)cc(N)n2)c1

$$$$
4JSE_QJ2_B_805
     RDKit          3D

 21 22  0  0  0  0  0  0  0  0999 V2000
   16.6770    7.7970   58.8370 N   0  0  0  0  0  0  0  0  0  0  0  0
   17.3150    6.6760   58.4020 C   0  0  0  0  0  0  0  0  0  0  0  0
   18.3650    6.0500   59.1080 C   0  0  0  0  0  0  0  0  0  0  0  0
   18.9710    4.8970   58.5530 C   0  0  0  0  0  0  0  0  0  0  0  0
   20.0990    4.1480   59.2230 C   0  0  0  0  0  0  0  0  0  0  0  0
   18.5160    4.3850   57.3310 C   0  0  0  0  0  0  0  0  0  0  0  0
   16.9050    6.1540   57.2160 N   0  0  0  0  0  0  0  0  0  0  0  0
   17.4760    5.0400   56.6680 C   0  0  0  0  0  0  0  0  0  0  0  0
   16.9400    4.4980   55.3600 C   0  0  0  0  0  0  0  0  0  0  0  0
   15.5150    3.9960   55.6860 C   0  0  0  0  0  0  0  0  0  0  0  0
   15.4960    3.0300   56.8670 C   0  0  0  0  0  0  0  0  0  0  0  0
   14.0760    2.6340   57.2760 C   0  0  0  0  0  0  0  0  0  0  0  0
   14.1700    1.2680   57.9200 C   0  0  0  0  0  0  0  0  0  0  0  0
   12.8560    0.7440   58.5210 C   0  0  0  0  0  0  0  0  0  0  0  0
   12.3350   -0.4230   58.0770 N   0  0  0  0  0  0  0  0  0  0  0  0
   11.2110   -0.9510   58.6040 C   0  0  0  0  0  0  0  0  0  0  0  0
   10.7940   -2.1070   58.0920 N   0  0  0  0  0  0  0  0  0  0  0  0
   10.5470   -0.3510   59.6830 C   0  0  0  0  0  0  0  0  0  0  0  0
   11.0790    0.8420   60.1640 C   0  0  0  0  0  0  0  0  0  0  0  0
   12.2300    1.3810   59.5800 C   0  0  0  0  0  0  0  0  0  0  0  0
   10.4360    1.5790   61.3110 C   0  0  0  0  0  0  0  0  0  0  0  0
  2  1  1  0
  3  2  2  0
  7  2  1  0
  4  3  1  0
  5  4  1  0
  6  4  2  0
  8  6  1  0
  8  7  2  0
  9  8  1  0
 10  9  1  0
 11 10  1  0
 12 11  1  0
 13 12  1  0
 14 13  1  0
 15 14  2  0
 20 14  1  0
 16 15  1  0
 17 16  1  0
 18 16  2  0
 19 18  1  0
 20 19  2  0
 21 19  1  0
A    1
N22
A    2
C22
A    3
C23
A    4
C24
A    5
C27
A    6
C25
A    7
N21
A    8
C26
A    9
C12
A   10
C11
A   11
C10
A   12
C09
A   13
C08
A   14
C06
A   15
N01
A   16
C02
A   17
N02
A   18
C03
A   19
C04
A   20
C05
A   21
C07
M  END
>  <Id>  (67) 
4JSE_QJ2_B_805

>  <ChainId>  (67) 
B

>  <AsymId>  (67) 
P

>  <SeqNum>  (67) 
805

>  <Name>  (67) 
6,6'-pentane-1,5-diylbis(4-methylpyridin-2-amine)

>  <SystematicName>  (67) 
6-[5-(6-azanyl-4-methyl-pyridin-2-yl)pentyl]-4-methyl-pyridin-2-amine

>  <Synonyms>  (67) 


>  <Type>  (67) 
NON-POLYMER

>  <Formula>  (67) 
C17 H24 N4

>  <ObservedFormula>  (67) 
C17 N4

>  <MolecularWeight>  (67) 
284.399

>  <ModifiedDate>  (67) 
2013-08-02

>  <Parent>  (67) 


>  <OneLetterCode>  (67) 


>  <SubcomponentList>  (67) 


>  <AmbiguousFlag>  (67) 
N

>  <InsertionCode>  (67) 


>  <InstanceId>  (67) 
4JSE_QJ2_B_805

>  <ChemCompId>  (67) 
QJ2

>  <PdbId>  (67) 
4JSE

>  <ResidueNumber>  (67) 
805

>  <InChI>  (67) 
InChI=1S/C17H24N4/c1-12-8-14(20-16(18)10-12)6-4-3-5-7-15-9-13(2)11-17(19)21-15/h8-11H,3-7H2,1-2H3,(H2,18,20)(H2,19,21)

>  <InChIKey>  (67) 
UWCJUMUVUHRQQV-UHFFFAOYSA-N

>  <SMILES>  (67) 
Cc1cc(nc(c1)N)CCCCCc2cc(cc(n2)N)C

>  <MissingHeavyAtoms>  (67) 
0

>  <Model>  (67) 
1

>  <AltIds>  (67) 


>  <pKI>  (67) 
7.32

>  <ChemblID>  (67) 
CHEMBL2414426

>  <standardized_canonical_smiles>  (67) 
Cc1cc(N)nc(CCCCCc2cc(C)cc(N)n2)c1

$$$$
4K5F_Q14_B_803
     RDKit          3D

 25 26  0  0  0  0  0  0  0  0999 V2000
   10.5460   -2.0520   58.4880 N   0  0  0  0  0  0  0  0  0  0  0  0
   10.8890   -0.8010   58.8970 C   0  0  0  0  0  0  0  0  0  0  0  0
   10.3720   -0.2760   60.0890 C   0  0  0  0  0  0  0  0  0  0  0  0
   10.7390    1.0210   60.4940 C   0  0  0  0  0  0  0  0  0  0  0  0
   10.1980    1.6360   61.7710 C   0  0  0  0  0  0  0  0  0  0  0  0
   11.5790    1.7670   59.6840 C   0  0  0  0  0  0  0  0  0  0  0  0
   11.7490   -0.0550   58.1590 N   0  0  0  0  0  0  0  0  0  0  0  0
   12.0930    1.2110   58.5070 C   0  0  0  0  0  0  0  0  0  0  0  0
   13.0710    2.0240   57.6350 C   0  0  0  0  0  0  0  0  0  0  0  0
   14.3790    1.5490   57.9650 O   0  0  0  0  0  0  0  0  0  0  0  0
   15.4400    1.9950   57.1160 C   0  0  0  0  0  0  0  0  0  0  0  0
   16.3920    0.7920   56.8870 C   0  0  0  0  0  0  0  0  0  0  0  0
   15.8750   -0.1780   55.9110 N   0  0  0  0  0  0  0  0  0  0  0  0
   16.0800    3.2120   57.7900 C   0  0  0  0  0  0  0  0  0  0  0  0
   17.0490    3.9870   56.9300 C   0  0  0  0  0  0  0  0  0  0  0  0
   16.3660    4.5840   55.8230 O   0  0  0  0  0  0  0  0  0  0  0  0
   17.2790    4.9330   54.7610 C   0  0  0  0  0  0  0  0  0  0  0  0
   17.9470    6.2890   54.9570 C   0  0  0  0  0  0  0  0  0  0  0  0
   17.6310    7.0470   56.0380 N   0  0  0  0  0  0  0  0  0  0  0  0
   18.1840    8.2620   56.2780 C   0  0  0  0  0  0  0  0  0  0  0  0
   17.8230    8.9660   57.3950 N   0  0  0  0  0  0  0  0  0  0  0  0
   19.1210    8.7730   55.3760 C   0  0  0  0  0  0  0  0  0  0  0  0
   18.8960    6.7680   54.0420 C   0  0  0  0  0  0  0  0  0  0  0  0
   19.4790    8.0240   54.2580 C   0  0  0  0  0  0  0  0  0  0  0  0
   20.4960    8.5880   53.2960 C   0  0  0  0  0  0  0  0  0  0  0  0
  2  1  1  0
  3  2  2  0
  7  2  1  0
  4  3  1  0
  5  4  1  0
  6  4  2  0
  8  6  1  0
  8  7  2  0
  9  8  1  0
 10  9  1  0
 11 10  1  0
 12 11  1  0
 14 11  1  0
 13 12  1  0
 15 14  1  0
 16 15  1  0
 17 16  1  0
 18 17  1  0
 19 18  2  0
 23 18  1  0
 20 19  1  0
 21 20  1  0
 22 20  2  0
 24 22  1  0
 24 23  2  0
 25 24  1  0
A    1
N22
A    2
C22
A    3
C23
A    4
C24
A    5
C27
A    6
C25
A    7
N21
A    8
C26
A    9
C28
A   10
O29
A   11
C12
A   12
C13
A   13
N14
A   14
C11
A   15
C10
A   16
O09
A   17
C08
A   18
C06
A   19
N01
A   20
C02
A   21
N02
A   22
C03
A   23
C05
A   24
C04
A   25
C07
M  END
>  <Id>  (68) 
4K5F_Q14_B_803

>  <ChainId>  (68) 
B

>  <AsymId>  (68) 
J

>  <SeqNum>  (68) 
803

>  <Name>  (68) 
6-[({(2S)-1-amino-4-[(6-amino-4-methylpyridin-2-yl)methoxy]butan-2-yl}oxy)methyl]-4-methylpyridin-2-amine

>  <SystematicName>  (68) 
6-[[(3S)-4-azanyl-3-[(6-azanyl-4-methyl-pyridin-2-yl)methoxy]butoxy]methyl]-4-methyl-pyridin-2-amine

>  <Synonyms>  (68) 


>  <Type>  (68) 
NON-POLYMER

>  <Formula>  (68) 
C18 H27 N5 O2

>  <ObservedFormula>  (68) 
C18 N5 O2

>  <MolecularWeight>  (68) 
345.439

>  <ModifiedDate>  (68) 
2013-09-13

>  <Parent>  (68) 


>  <OneLetterCode>  (68) 


>  <SubcomponentList>  (68) 


>  <AmbiguousFlag>  (68) 
N

>  <InsertionCode>  (68) 


>  <InstanceId>  (68) 
4K5F_Q14_B_803

>  <ChemCompId>  (68) 
Q14

>  <PdbId>  (68) 
4K5F

>  <ResidueNumber>  (68) 
803

>  <InChI>  (68) 
InChI=1S/C18H27N5O2/c1-12-5-14(22-17(20)7-12)10-24-4-3-16(9-19)25-11-15-6-13(2)8-18(21)23-15/h5-8,16H,3-4,9-11,19H2,1-2H3,(H2,20,22)(H2,21,23)/t16-/m0/s1

>  <InChIKey>  (68) 
ZLWWYKPNQBCOKF-INIZCTEOSA-N

>  <SMILES>  (68) 
Cc1cc(nc(c1)N)COCC[C@@H](CN)OCc2cc(cc(n2)N)C

>  <MissingHeavyAtoms>  (68) 
0

>  <Model>  (68) 
1

>  <AltIds>  (68) 


>  <pKI>  (68) 
6.63

>  <ChemblID>  (68) 
CHEMBL2430148

>  <standardized_canonical_smiles>  (68) 
Cc1cc(N)nc(COCC[C@@H](CN)OCc2cc(C)cc(N)n2)c1

$$$$
4K5G_Q13_B_803
     RDKit          3D

 25 26  0  0  0  0  0  0  0  0999 V2000
   16.2890    9.7610   54.9300 N   0  0  0  0  0  0  0  0  0  0  0  0
   17.4700    9.0620   54.8450 C   0  0  0  0  0  0  0  0  0  0  0  0
   18.6630    9.7280   54.5180 C   0  0  0  0  0  0  0  0  0  0  0  0
   19.8580    8.9990   54.4420 C   0  0  0  0  0  0  0  0  0  0  0  0
   21.1530    9.7050   54.0970 C   0  0  0  0  0  0  0  0  0  0  0  0
   19.8450    7.6170   54.6850 C   0  0  0  0  0  0  0  0  0  0  0  0
   17.5120    7.7150   55.0820 N   0  0  0  0  0  0  0  0  0  0  0  0
   18.6450    6.9790   55.0080 C   0  0  0  0  0  0  0  0  0  0  0  0
   18.6150    5.4810   55.2730 C   0  0  0  0  0  0  0  0  0  0  0  0
   17.9480    5.1910   56.5130 O   0  0  0  0  0  0  0  0  0  0  0  0
   17.8790    3.7790   56.8500 C   0  0  0  0  0  0  0  0  0  0  0  0
   19.0860    3.3510   57.7040 C   0  0  0  0  0  0  0  0  0  0  0  0
   16.5200    3.4720   57.5220 C   0  0  0  0  0  0  0  0  0  0  0  0
   15.5020    4.2130   56.8050 N   0  0  0  0  0  0  0  0  0  0  0  0
   16.1420    1.9810   57.5040 C   0  0  0  0  0  0  0  0  0  0  0  0
   15.0100    1.5740   58.3180 O   0  0  0  0  0  0  0  0  0  0  0  0
   13.7250    1.8650   57.7610 C   0  0  0  0  0  0  0  0  0  0  0  0
   12.6220    1.1230   58.5560 C   0  0  0  0  0  0  0  0  0  0  0  0
   12.1880   -0.1100   58.1830 N   0  0  0  0  0  0  0  0  0  0  0  0
   11.1940   -0.7820   58.8220 C   0  0  0  0  0  0  0  0  0  0  0  0
   10.8480   -1.9880   58.3180 N   0  0  0  0  0  0  0  0  0  0  0  0
   10.6310   -0.2450   59.9890 C   0  0  0  0  0  0  0  0  0  0  0  0
   11.0980    1.0000   60.4270 C   0  0  0  0  0  0  0  0  0  0  0  0
   12.0940    1.6630   59.7140 C   0  0  0  0  0  0  0  0  0  0  0  0
   10.5520    1.6880   61.6670 C   0  0  0  0  0  0  0  0  0  0  0  0
  2  1  1  0
  3  2  2  0
  7  2  1  0
  4  3  1  0
  5  4  1  0
  6  4  2  0
  8  6  1  0
  8  7  2  0
  9  8  1  0
 10  9  1  0
 11 10  1  0
 12 11  1  0
 13 11  1  0
 14 13  1  0
 15 13  1  0
 16 15  1  0
 17 16  1  0
 18 17  1  0
 19 18  2  0
 24 18  1  0
 20 19  1  0
 21 20  1  0
 22 20  2  0
 23 22  1  0
 24 23  2  0
 25 23  1  0
A    1
N22
A    2
C22
A    3
C23
A    4
C24
A    5
C27
A    6
C25
A    7
N21
A    8
C26
A    9
C16
A   10
O15
A   11
C13
A   12
C14
A   13
C11
A   14
N12
A   15
C10
A   16
O09
A   17
C08
A   18
C06
A   19
N01
A   20
C02
A   21
N02
A   22
C03
A   23
C04
A   24
C05
A   25
C07
M  END
>  <Id>  (69) 
4K5G_Q13_B_803

>  <ChainId>  (69) 
B

>  <AsymId>  (69) 
J

>  <SeqNum>  (69) 
803

>  <Name>  (69) 
6,6'-{[(2S,3S)-2-aminobutane-1,3-diyl]bis(oxymethanediyl)}bis(4-methylpyridin-2-amine)

>  <SystematicName>  (69) 
6-[[(2S,3S)-2-azanyl-3-[(6-azanyl-4-methyl-pyridin-2-yl)methoxy]butoxy]methyl]-4-methyl-pyridin-2-amine

>  <Synonyms>  (69) 


>  <Type>  (69) 
NON-POLYMER

>  <Formula>  (69) 
C18 H27 N5 O2

>  <ObservedFormula>  (69) 
C18 N5 O2

>  <MolecularWeight>  (69) 
345.439

>  <ModifiedDate>  (69) 
2013-09-13

>  <Parent>  (69) 


>  <OneLetterCode>  (69) 


>  <SubcomponentList>  (69) 


>  <AmbiguousFlag>  (69) 
N

>  <InsertionCode>  (69) 


>  <InstanceId>  (69) 
4K5G_Q13_B_803

>  <ChemCompId>  (69) 
Q13

>  <PdbId>  (69) 
4K5G

>  <ResidueNumber>  (69) 
803

>  <InChI>  (69) 
InChI=1S/C18H27N5O2/c1-11-4-14(22-17(20)6-11)8-24-10-16(19)13(3)25-9-15-5-12(2)7-18(21)23-15/h4-7,13,16H,8-10,19H2,1-3H3,(H2,20,22)(H2,21,23)/t13-,16-/m0/s1

>  <InChIKey>  (69) 
BGQWILAWEWZMTG-BBRMVZONSA-N

>  <SMILES>  (69) 
Cc1cc(nc(c1)N)COC[C@@H]([C@H](C)OCc2cc(cc(n2)N)C)N

>  <MissingHeavyAtoms>  (69) 
0

>  <Model>  (69) 
1

>  <AltIds>  (69) 


>  <pKI>  (69) 
7.43

>  <ChemblID>  (69) 
CHEMBL2430150

>  <standardized_canonical_smiles>  (69) 
Cc1cc(N)nc(COC[C@H](N)[C@H](C)OCc2cc(C)cc(N)n2)c1

$$$$
4K5D_1Q6_B_804
     RDKit          3D

 24 25  0  0  0  0  0  0  0  0999 V2000
   18.5680    9.1290   54.4190 N   0  0  0  0  0  0  0  0  0  0  0  0
   18.8090    7.8010   54.5270 C   0  0  0  0  0  0  0  0  0  0  0  0
   20.0600    7.2700   54.1890 C   0  0  0  0  0  0  0  0  0  0  0  0
   20.2810    5.8970   54.3050 C   0  0  0  0  0  0  0  0  0  0  0  0
   21.6340    5.3250   53.9510 C   0  0  0  0  0  0  0  0  0  0  0  0
   19.2370    5.0790   54.7600 C   0  0  0  0  0  0  0  0  0  0  0  0
   17.8170    6.9880   54.9620 N   0  0  0  0  0  0  0  0  0  0  0  0
   17.9980    5.6470   55.0960 C   0  0  0  0  0  0  0  0  0  0  0  0
   16.8220    4.7970   55.5640 C   0  0  0  0  0  0  0  0  0  0  0  0
   16.6700    4.5770   56.9750 O   0  0  0  0  0  0  0  0  0  0  0  0
   16.5660    3.1750   57.2330 C   0  0  0  0  0  0  0  0  0  0  0  0
   17.7750    2.6580   58.0010 C   0  0  0  0  0  0  0  0  0  0  0  0
   19.0030    3.2780   57.5500 N   0  0  0  0  0  0  0  0  0  0  0  0
   15.3270    2.9570   58.0800 C   0  0  0  0  0  0  0  0  0  0  0  0
   14.8330    1.6140   58.0950 O   0  0  0  0  0  0  0  0  0  0  0  0
   13.4560    1.7960   57.7440 C   0  0  0  0  0  0  0  0  0  0  0  0
   12.4220    1.0640   58.5950 C   0  0  0  0  0  0  0  0  0  0  0  0
   11.9180    1.6690   59.7350 C   0  0  0  0  0  0  0  0  0  0  0  0
   11.9770   -0.1590   58.2130 N   0  0  0  0  0  0  0  0  0  0  0  0
   11.0480   -0.8290   58.9030 C   0  0  0  0  0  0  0  0  0  0  0  0
   10.6770   -2.0420   58.4230 N   0  0  0  0  0  0  0  0  0  0  0  0
   10.5100   -0.2470   60.0720 C   0  0  0  0  0  0  0  0  0  0  0  0
   10.9630    1.0180   60.4960 C   0  0  0  0  0  0  0  0  0  0  0  0
   10.4550    1.7210   61.7360 C   0  0  0  0  0  0  0  0  0  0  0  0
  2  1  1  0
  3  2  2  0
  7  2  1  0
  4  3  1  0
  5  4  1  0
  6  4  2  0
  8  6  1  0
  8  7  2  0
  9  8  1  0
 10  9  1  0
 11 10  1  0
 12 11  1  0
 14 11  1  0
 13 12  1  0
 15 14  1  0
 16 15  1  0
 17 16  1  0
 18 17  2  0
 19 17  1  0
 23 18  1  0
 20 19  2  0
 21 20  1  0
 22 20  1  0
 23 22  2  0
 24 23  1  0
A    1
N22
A    2
C22
A    3
C23
A    4
C24
A    5
C27
A    6
C25
A    7
N21
A    8
C26
A    9
C28
A   10
O29
A   11
C11
A   12
C12
A   13
N13
A   14
C10
A   15
O09
A   16
C08
A   17
C06
A   18
C05
A   19
N01
A   20
C02
A   21
N02
A   22
C03
A   23
C04
A   24
C07
M  END
>  <Id>  (70) 
4K5D_1Q6_B_804

>  <ChainId>  (70) 
B

>  <AsymId>  (70) 
K

>  <SeqNum>  (70) 
804

>  <Name>  (70) 
6,6'-{[(2S)-3-aminopropane-1,2-diyl]bis(oxymethanediyl)}bis(4-methylpyridin-2-amine)

>  <SystematicName>  (70) 
6-[[(2S)-3-azanyl-2-[(6-azanyl-4-methyl-pyridin-2-yl)methoxy]propoxy]methyl]-4-methyl-pyridin-2-amine

>  <Synonyms>  (70) 


>  <Type>  (70) 
NON-POLYMER

>  <Formula>  (70) 
C17 H25 N5 O2

>  <ObservedFormula>  (70) 
C17 N5 O2

>  <MolecularWeight>  (70) 
331.413

>  <ModifiedDate>  (70) 
2013-09-13

>  <Parent>  (70) 


>  <OneLetterCode>  (70) 


>  <SubcomponentList>  (70) 


>  <AmbiguousFlag>  (70) 
N

>  <InsertionCode>  (70) 


>  <InstanceId>  (70) 
4K5D_1Q6_B_804

>  <ChemCompId>  (70) 
1Q6

>  <PdbId>  (70) 
4K5D

>  <ResidueNumber>  (70) 
804

>  <InChI>  (70) 
InChI=1S/C17H25N5O2/c1-11-3-13(21-16(19)5-11)8-23-10-15(7-18)24-9-14-4-12(2)6-17(20)22-14/h3-6,15H,7-10,18H2,1-2H3,(H2,19,21)(H2,20,22)/t15-/m0/s1

>  <InChIKey>  (70) 
FVCUZJIKIIWHJD-HNNXBMFYSA-N

>  <SMILES>  (70) 
Cc1cc(nc(c1)N)COC[C@H](CN)OCc2cc(cc(n2)N)C

>  <MissingHeavyAtoms>  (70) 
0

>  <Model>  (70) 
1

>  <AltIds>  (70) 


>  <pKI>  (70) 
6.42

>  <ChemblID>  (70) 
CHEMBL2430143

>  <standardized_canonical_smiles>  (70) 
Cc1cc(N)nc(COC[C@H](CN)OCc2cc(C)cc(N)n2)c1

$$$$
4K5E_1Q7_B_803
     RDKit          3D

 24 25  0  0  0  0  0  0  0  0999 V2000
   19.5440    6.4090   54.3340 N   0  0  0  0  0  0  0  0  0  0  0  0
   20.0430    5.3070   54.9520 C   0  0  0  0  0  0  0  0  0  0  0  0
   21.4300    5.1170   55.0320 C   0  0  0  0  0  0  0  0  0  0  0  0
   21.9400    3.9770   55.6700 C   0  0  0  0  0  0  0  0  0  0  0  0
   23.4180    3.7400   55.7710 C   0  0  0  0  0  0  0  0  0  0  0  0
   21.0670    3.0410   56.2210 C   0  0  0  0  0  0  0  0  0  0  0  0
   19.2000    4.3860   55.4950 N   0  0  0  0  0  0  0  0  0  0  0  0
   19.6910    3.2650   56.1180 C   0  0  0  0  0  0  0  0  0  0  0  0
   18.7560    2.2450   56.7230 C   0  0  0  0  0  0  0  0  0  0  0  0
   18.0340    2.8970   57.7700 O   0  0  0  0  0  0  0  0  0  0  0  0
   16.6140    2.7980   57.6170 C   0  0  0  0  0  0  0  0  0  0  0  0
   16.0740    4.2170   57.5850 C   0  0  0  0  0  0  0  0  0  0  0  0
   15.9130    4.5730   56.2000 N   0  0  0  0  0  0  0  0  0  0  0  0
   15.9830    2.0020   58.7770 C   0  0  0  0  0  0  0  0  0  0  0  0
   14.9450    1.0790   58.3870 O   0  0  0  0  0  0  0  0  0  0  0  0
   13.7140    1.7040   58.0610 C   0  0  0  0  0  0  0  0  0  0  0  0
   12.5560    1.0120   58.7600 C   0  0  0  0  0  0  0  0  0  0  0  0
   12.0780   -0.1920   58.3490 N   0  0  0  0  0  0  0  0  0  0  0  0
   11.0230   -0.7700   58.9690 C   0  0  0  0  0  0  0  0  0  0  0  0
   10.5840   -1.9580   58.5130 N   0  0  0  0  0  0  0  0  0  0  0  0
   10.4300   -0.1770   60.0940 C   0  0  0  0  0  0  0  0  0  0  0  0
   11.9840    1.6490   59.8470 C   0  0  0  0  0  0  0  0  0  0  0  0
   10.9170    1.0470   60.5200 C   0  0  0  0  0  0  0  0  0  0  0  0
   10.3300    1.7790   61.7030 C   0  0  0  0  0  0  0  0  0  0  0  0
  2  1  1  0
  3  2  2  0
  7  2  1  0
  4  3  1  0
  5  4  1  0
  6  4  2  0
  8  6  1  0
  8  7  2  0
  9  8  1  0
 10  9  1  0
 11 10  1  0
 12 11  1  0
 14 11  1  0
 13 12  1  0
 15 14  1  0
 16 15  1  0
 17 16  1  0
 18 17  2  0
 22 17  1  0
 19 18  1  0
 20 19  1  0
 21 19  2  0
 23 21  1  0
 23 22  2  0
 24 23  1  0
A    1
N22
A    2
C22
A    3
C23
A    4
C24
A    5
C27
A    6
C25
A    7
N21
A    8
C26
A    9
C15
A   10
O14
A   11
C11
A   12
C12
A   13
N13
A   14
C10
A   15
O09
A   16
C08
A   17
C06
A   18
N01
A   19
C02
A   20
N02
A   21
C03
A   22
C05
A   23
C04
A   24
C07
M  END
>  <Id>  (71) 
4K5E_1Q7_B_803

>  <ChainId>  (71) 
B

>  <AsymId>  (71) 
J

>  <SeqNum>  (71) 
803

>  <Name>  (71) 
6,6'-{[(2R)-3-aminopropane-1,2-diyl]bis(oxymethanediyl)}bis(4-methylpyridin-2-amine)

>  <SystematicName>  (71) 
6-[[(2R)-3-azanyl-2-[(6-azanyl-4-methyl-pyridin-2-yl)methoxy]propoxy]methyl]-4-methyl-pyridin-2-amine

>  <Synonyms>  (71) 


>  <Type>  (71) 
NON-POLYMER

>  <Formula>  (71) 
C17 H25 N5 O2

>  <ObservedFormula>  (71) 
C17 N5 O2

>  <MolecularWeight>  (71) 
331.413

>  <ModifiedDate>  (71) 
2013-09-13

>  <Parent>  (71) 


>  <OneLetterCode>  (71) 


>  <SubcomponentList>  (71) 


>  <AmbiguousFlag>  (71) 
N

>  <InsertionCode>  (71) 


>  <InstanceId>  (71) 
4K5E_1Q7_B_803

>  <ChemCompId>  (71) 
1Q7

>  <PdbId>  (71) 
4K5E

>  <ResidueNumber>  (71) 
803

>  <InChI>  (71) 
InChI=1S/C17H25N5O2/c1-11-3-13(21-16(19)5-11)8-23-10-15(7-18)24-9-14-4-12(2)6-17(20)22-14/h3-6,15H,7-10,18H2,1-2H3,(H2,19,21)(H2,20,22)/t15-/m1/s1

>  <InChIKey>  (71) 
FVCUZJIKIIWHJD-OAHLLOKOSA-N

>  <SMILES>  (71) 
Cc1cc(nc(c1)N)COC[C@@H](CN)OCc2cc(cc(n2)N)C

>  <MissingHeavyAtoms>  (71) 
0

>  <Model>  (71) 
1

>  <AltIds>  (71) 


>  <pKI>  (71) 
7.49

>  <ChemblID>  (71) 
CHEMBL2430144

>  <standardized_canonical_smiles>  (71) 
Cc1cc(N)nc(COC[C@@H](CN)OCc2cc(C)cc(N)n2)c1

$$$$
4CX6_Q16_B_800
     RDKit          3D

 26 28  0  0  0  0  0  0  0  0999 V2000
   15.8300   10.4980   54.8950 N   0  0  0  0  0  0  0  0  0  0  0  0
   17.1240   10.0940   54.7750 C   0  0  0  0  0  0  0  0  0  0  0  0
   18.1330   11.0040   54.4130 C   0  0  0  0  0  0  0  0  0  0  0  0
   19.4680   10.5490   54.3020 C   0  0  0  0  0  0  0  0  0  0  0  0
   20.6040   11.4650   53.9230 C   0  0  0  0  0  0  0  0  0  0  0  0
   19.7720    9.2130   54.5330 C   0  0  0  0  0  0  0  0  0  0  0  0
   17.4480    8.7910   54.9930 N   0  0  0  0  0  0  0  0  0  0  0  0
   18.7360    8.3460   54.8710 C   0  0  0  0  0  0  0  0  0  0  0  0
   19.0810    6.9090   55.1150 C   0  0  0  0  0  0  0  0  0  0  0  0
   18.3940    6.5150   56.2990 O   0  0  0  0  0  0  0  0  0  0  0  0
   16.1520    4.5730   57.4820 C   0  0  0  0  0  0  0  0  0  0  0  0
   17.3210    4.6210   55.3530 C   0  0  0  0  0  0  0  0  0  0  0  0
   16.0350    4.6370   56.0470 N   0  0  0  0  0  0  0  0  0  0  0  0
   17.6200    4.8510   57.7590 C   0  0  0  0  0  0  0  0  0  0  0  0
   15.8320    3.1430   57.8780 C   0  0  0  0  0  0  0  0  0  0  0  0
   18.2960    5.1010   56.4150 C   0  0  0  0  0  0  0  0  0  0  0  0
   14.4220    2.9330   57.8070 O   0  0  0  0  0  0  0  0  0  0  0  0
   14.2000    1.5060   57.8070 C   0  0  0  0  0  0  0  0  0  0  0  0
   12.9350    1.0100   58.5450 C   0  0  0  0  0  0  0  0  0  0  0  0
   12.4140   -0.1990   58.2160 N   0  0  0  0  0  0  0  0  0  0  0  0
   11.3290   -0.7300   58.8280 C   0  0  0  0  0  0  0  0  0  0  0  0
   10.9100   -1.9360   58.4020 N   0  0  0  0  0  0  0  0  0  0  0  0
   10.7230   -0.0480   59.8970 C   0  0  0  0  0  0  0  0  0  0  0  0
   11.2490    1.1980   60.2620 C   0  0  0  0  0  0  0  0  0  0  0  0
   12.3510    1.7290   59.5870 C   0  0  0  0  0  0  0  0  0  0  0  0
   10.6390    2.0150   61.3770 C   0  0  0  0  0  0  0  0  0  0  0  0
  2  1  1  0
  3  2  2  0
  7  2  1  0
  4  3  1  0
  5  4  1  0
  6  4  2  0
  8  6  1  0
  8  7  2  0
  9  8  1  0
 10  9  1  0
 16 10  1  0
 13 11  1  0
 14 11  1  0
 15 11  1  0
 13 12  1  0
 16 12  1  0
 16 14  1  0
 17 15  1  0
 18 17  1  0
 19 18  1  0
 20 19  2  0
 25 19  1  0
 21 20  1  0
 22 21  1  0
 23 21  2  0
 24 23  1  0
 25 24  2  0
 26 24  1  0
A    1
N22
A    2
C22
A    3
C23
A    4
C24
A    5
C27
A    6
C25
A    7
N21
A    8
C26
A    9
C12
A   10
O11
A   11
C2'
A   12
C5'
A   13
N1'
A   14
C3'
A   15
C10
A   16
C4'
A   17
O09
A   18
C08
A   19
C06
A   20
N01
A   21
C02
A   22
N02
A   23
C03
A   24
C04
A   25
C05
A   26
C07
M  END
>  <Id>  (72) 
4CX6_Q16_B_800

>  <ChainId>  (72) 
B

>  <AsymId>  (72) 
J

>  <SeqNum>  (72) 
800

>  <Name>  (72) 
6-((((3S, 5R)-5-(((6-amino-4-methylpyridin-2-yl)methoxy)methyl)pyrrolidin-3-yl)oxy)methyl)-4-methylpyridin-2-amine

>  <SystematicName>  (72) 
6-[[(2R,4S)-4-[(6-azanyl-4-methyl-pyridin-2-yl)methoxy]pyrrolidin-2-yl]methoxymethyl]-4-methyl-pyridin-2-amine

>  <Synonyms>  (72) 


>  <Type>  (72) 
non-polymer

>  <Formula>  (72) 
C19 H27 N5 O2

>  <ObservedFormula>  (72) 
C19 N5 O2

>  <MolecularWeight>  (72) 
357.45

>  <ModifiedDate>  (72) 
2014-09-05

>  <Parent>  (72) 


>  <OneLetterCode>  (72) 


>  <SubcomponentList>  (72) 


>  <AmbiguousFlag>  (72) 
N

>  <InsertionCode>  (72) 


>  <InstanceId>  (72) 
4CX6_Q16_B_800

>  <ChemCompId>  (72) 
Q16

>  <PdbId>  (72) 
4CX6

>  <ResidueNumber>  (72) 
800

>  <InChI>  (72) 
InChI=1S/C19H27N5O2/c1-12-3-15(23-18(20)5-12)10-25-9-14-7-17(8-22-14)26-11-16-4-13(2)6-19(21)24-16/h3-6,14,17,22H,7-11H2,1-2H3,(H2,20,23)(H2,21,24)/t14-,17+/m1/s1

>  <InChIKey>  (72) 
NUKSCYDKRQJOFO-PBHICJAKSA-N

>  <SMILES>  (72) 
Cc1cc(nc(c1)N)COC[C@H]2C[C@@H](CN2)OCc3cc(cc(n3)N)C

>  <MissingHeavyAtoms>  (72) 
0

>  <Model>  (72) 
1

>  <AltIds>  (72) 


>  <pKI>  (72) 
8.01

>  <ChemblID>  (72) 
CHEMBL3109188

>  <standardized_canonical_smiles>  (72) 
Cc1cc(N)nc(COC[C@H]2C[C@H](OCc3cc(C)cc(N)n3)CN2)c1

$$$$
4C39_Q16_B_800
     RDKit          3D

 26 28  0  0  0  0  0  0  0  0999 V2000
   15.9060   10.3170   54.9300 N   0  0  0  0  0  0  0  0  0  0  0  0
   17.1920    9.8600   54.8200 C   0  0  0  0  0  0  0  0  0  0  0  0
   18.2360   10.7570   54.5330 C   0  0  0  0  0  0  0  0  0  0  0  0
   19.5660   10.2940   54.4250 C   0  0  0  0  0  0  0  0  0  0  0  0
   20.6940   11.2530   54.1230 C   0  0  0  0  0  0  0  0  0  0  0  0
   19.8570    8.9340   54.6030 C   0  0  0  0  0  0  0  0  0  0  0  0
   17.4970    8.5380   54.9700 N   0  0  0  0  0  0  0  0  0  0  0  0
   18.7930    8.0740   54.8710 C   0  0  0  0  0  0  0  0  0  0  0  0
   19.1040    6.6160   55.0310 C   0  0  0  0  0  0  0  0  0  0  0  0
   18.3000    6.1210   56.1000 O   0  0  0  0  0  0  0  0  0  0  0  0
   16.1480    4.4250   57.5130 C   0  0  0  0  0  0  0  0  0  0  0  0
   17.0790    4.2870   55.2710 C   0  0  0  0  0  0  0  0  0  0  0  0
   15.8940    4.5530   56.0920 N   0  0  0  0  0  0  0  0  0  0  0  0
   17.6590    4.3880   57.5820 C   0  0  0  0  0  0  0  0  0  0  0  0
   15.6180    3.0620   57.9340 C   0  0  0  0  0  0  0  0  0  0  0  0
   18.2060    4.7010   56.1850 C   0  0  0  0  0  0  0  0  0  0  0  0
   14.2110    3.0140   57.6920 O   0  0  0  0  0  0  0  0  0  0  0  0
   13.8180    1.6330   57.5730 C   0  0  0  0  0  0  0  0  0  0  0  0
   12.6830    1.0760   58.4540 C   0  0  0  0  0  0  0  0  0  0  0  0
   12.2340   -0.1860   58.2110 N   0  0  0  0  0  0  0  0  0  0  0  0
   11.2510   -0.7660   58.9100 C   0  0  0  0  0  0  0  0  0  0  0  0
   10.8750   -2.0240   58.5590 N   0  0  0  0  0  0  0  0  0  0  0  0
   10.6950   -0.0710   60.0040 C   0  0  0  0  0  0  0  0  0  0  0  0
   11.1610    1.2150   60.2970 C   0  0  0  0  0  0  0  0  0  0  0  0
   12.1460    1.7970   59.5120 C   0  0  0  0  0  0  0  0  0  0  0  0
   10.5850    2.0190   61.4370 C   0  0  0  0  0  0  0  0  0  0  0  0
  2  1  1  0
  3  2  2  0
  7  2  1  0
  4  3  1  0
  5  4  1  0
  6  4  2  0
  8  6  1  0
  8  7  2  0
  9  8  1  0
 10  9  1  0
 16 10  1  0
 13 11  1  0
 14 11  1  0
 15 11  1  0
 13 12  1  0
 16 12  1  0
 16 14  1  0
 17 15  1  0
 18 17  1  0
 19 18  1  0
 20 19  2  0
 25 19  1  0
 21 20  1  0
 22 21  1  0
 23 21  2  0
 24 23  1  0
 25 24  2  0
 26 24  1  0
A    1
N22
A    2
C22
A    3
C23
A    4
C24
A    5
C27
A    6
C25
A    7
N21
A    8
C26
A    9
C12
A   10
O11
A   11
C2'
A   12
C5'
A   13
N1'
A   14
C3'
A   15
C10
A   16
C4'
A   17
O09
A   18
C08
A   19
C06
A   20
N01
A   21
C02
A   22
N02
A   23
C03
A   24
C04
A   25
C05
A   26
C07
M  END
>  <Id>  (73) 
4C39_Q16_B_800

>  <ChainId>  (73) 
B

>  <AsymId>  (73) 
J

>  <SeqNum>  (73) 
800

>  <Name>  (73) 
6-((((3S, 5R)-5-(((6-amino-4-methylpyridin-2-yl)methoxy)methyl)pyrrolidin-3-yl)oxy)methyl)-4-methylpyridin-2-amine

>  <SystematicName>  (73) 
6-[[(2R,4S)-4-[(6-azanyl-4-methyl-pyridin-2-yl)methoxy]pyrrolidin-2-yl]methoxymethyl]-4-methyl-pyridin-2-amine

>  <Synonyms>  (73) 


>  <Type>  (73) 
non-polymer

>  <Formula>  (73) 
C19 H27 N5 O2

>  <ObservedFormula>  (73) 
C19 N5 O2

>  <MolecularWeight>  (73) 
357.45

>  <ModifiedDate>  (73) 
2014-09-05

>  <Parent>  (73) 


>  <OneLetterCode>  (73) 


>  <SubcomponentList>  (73) 


>  <AmbiguousFlag>  (73) 
N

>  <InsertionCode>  (73) 


>  <InstanceId>  (73) 
4C39_Q16_B_800

>  <ChemCompId>  (73) 
Q16

>  <PdbId>  (73) 
4C39

>  <ResidueNumber>  (73) 
800

>  <InChI>  (73) 
InChI=1S/C19H27N5O2/c1-12-3-15(23-18(20)5-12)10-25-9-14-7-17(8-22-14)26-11-16-4-13(2)6-19(21)24-16/h3-6,14,17,22H,7-11H2,1-2H3,(H2,20,23)(H2,21,24)/t14-,17+/m1/s1

>  <InChIKey>  (73) 
NUKSCYDKRQJOFO-PBHICJAKSA-N

>  <SMILES>  (73) 
Cc1cc(nc(c1)N)COC[C@H]2C[C@@H](CN2)OCc3cc(cc(n3)N)C

>  <MissingHeavyAtoms>  (73) 
0

>  <Model>  (73) 
1

>  <AltIds>  (73) 


>  <pKI>  (73) 
8.01

>  <ChemblID>  (73) 
CHEMBL3109188

>  <standardized_canonical_smiles>  (73) 
Cc1cc(N)nc(COC[C@H]2C[C@H](OCc3cc(C)cc(N)n3)CN2)c1

$$$$
4LUX_QJ8_B_803
     RDKit          3D

 26 28  0  0  0  0  0  0  0  0999 V2000
   10.9260   -1.9120   58.6380 N   0  0  0  0  0  0  0  0  0  0  0  0
   11.2990   -0.6490   58.9700 C   0  0  0  0  0  0  0  0  0  0  0  0
   10.7500   -0.0660   60.1360 C   0  0  0  0  0  0  0  0  0  0  0  0
   11.1340    1.2300   60.4720 C   0  0  0  0  0  0  0  0  0  0  0  0
   10.6310    1.9410   61.7090 C   0  0  0  0  0  0  0  0  0  0  0  0
   12.0450    1.9010   59.6660 C   0  0  0  0  0  0  0  0  0  0  0  0
   12.1990    0.0330   58.2120 N   0  0  0  0  0  0  0  0  0  0  0  0
   12.5640    1.3250   58.5190 C   0  0  0  0  0  0  0  0  0  0  0  0
   13.5260    2.2140   57.6990 C   0  0  0  0  0  0  0  0  0  0  0  0
   14.8570    2.1630   58.2130 O   0  0  0  0  0  0  0  0  0  0  0  0
   15.6470    3.3590   58.3400 C   0  0  0  0  0  0  0  0  0  0  0  0
   17.0030    2.7330   58.6140 C   0  0  0  0  0  0  0  0  0  0  0  0
   17.6660    2.7290   57.3310 N   0  0  0  0  0  0  0  0  0  0  0  0
   15.8860    4.2450   57.1150 C   0  0  0  0  0  0  0  0  0  0  0  0
   17.1790    3.7710   56.4630 C   0  0  0  0  0  0  0  0  0  0  0  0
   18.2160    4.8960   56.3650 C   0  0  0  0  0  0  0  0  0  0  0  0
   17.7870    5.7880   55.3390 O   0  0  0  0  0  0  0  0  0  0  0  0
   18.8650    6.5140   54.7430 C   0  0  0  0  0  0  0  0  0  0  0  0
   18.5760    8.0020   54.7460 C   0  0  0  0  0  0  0  0  0  0  0  0
   17.3060    8.5150   54.8760 N   0  0  0  0  0  0  0  0  0  0  0  0
   17.0560    9.8640   54.8710 C   0  0  0  0  0  0  0  0  0  0  0  0
   15.7900   10.3610   55.0090 N   0  0  0  0  0  0  0  0  0  0  0  0
   18.1400   10.7440   54.7290 C   0  0  0  0  0  0  0  0  0  0  0  0
   19.4430   10.2360   54.5960 C   0  0  0  0  0  0  0  0  0  0  0  0
   19.6640    8.8620   54.6020 C   0  0  0  0  0  0  0  0  0  0  0  0
   20.6320   11.1480   54.4450 C   0  0  0  0  0  0  0  0  0  0  0  0
  2  1  1  0
  3  2  2  0
  7  2  1  0
  4  3  1  0
  5  4  1  0
  6  4  2  0
  8  6  1  0
  8  7  2  0
  9  8  1  0
 10  9  1  0
 11 10  1  0
 12 11  1  0
 14 11  1  0
 13 12  1  0
 15 13  1  0
 15 14  1  0
 16 15  1  0
 17 16  1  0
 18 17  1  0
 19 18  1  0
 20 19  2  0
 25 19  1  0
 21 20  1  0
 22 21  1  0
 23 21  2  0
 24 23  1  0
 25 24  2  0
 26 24  1  0
A    1
N22
A    2
C22
A    3
C23
A    4
C24
A    5
C27
A    6
C25
A    7
N21
A    8
C26
A    9
C12
A   10
O11
A   11
C4'
A   12
C5'
A   13
N1'
A   14
C3'
A   15
C2'
A   16
C10
A   17
O09
A   18
C08
A   19
C06
A   20
N01
A   21
C02
A   22
N02
A   23
C03
A   24
C04
A   25
C05
A   26
C07
M  END
>  <Id>  (74) 
4LUX_QJ8_B_803

>  <ChainId>  (74) 
B

>  <AsymId>  (74) 
J

>  <SeqNum>  (74) 
803

>  <Name>  (74) 
6-({[(3R,5S)-5-{[(6-amino-4-methylpyridin-2-yl)methoxy]methyl}pyrrolidin-3-yl]oxy}methyl)-4-methylpyridin-2-amine

>  <SystematicName>  (74) 
6-[[(2S,4R)-4-[(6-azanyl-4-methyl-pyridin-2-yl)methoxy]pyrrolidin-2-yl]methoxymethyl]-4-methyl-pyridin-2-amine

>  <Synonyms>  (74) 


>  <Type>  (74) 
NON-POLYMER

>  <Formula>  (74) 
C19 H27 N5 O2

>  <ObservedFormula>  (74) 
C19 N5 O2

>  <MolecularWeight>  (74) 
357.45

>  <ModifiedDate>  (74) 
2013-10-18

>  <Parent>  (74) 


>  <OneLetterCode>  (74) 


>  <SubcomponentList>  (74) 


>  <AmbiguousFlag>  (74) 
N

>  <InsertionCode>  (74) 


>  <InstanceId>  (74) 
4LUX_QJ8_B_803

>  <ChemCompId>  (74) 
QJ8

>  <PdbId>  (74) 
4LUX

>  <ResidueNumber>  (74) 
803

>  <InChI>  (74) 
InChI=1S/C19H27N5O2/c1-12-3-15(23-18(20)5-12)10-25-9-14-7-17(8-22-14)26-11-16-4-13(2)6-19(21)24-16/h3-6,14,17,22H,7-11H2,1-2H3,(H2,20,23)(H2,21,24)/t14-,17+/m0/s1

>  <InChIKey>  (74) 
NUKSCYDKRQJOFO-WMLDXEAASA-N

>  <SMILES>  (74) 
Cc1cc(nc(c1)N)COC[C@@H]2C[C@H](CN2)OCc3cc(cc(n3)N)C

>  <MissingHeavyAtoms>  (74) 
0

>  <Model>  (74) 
1

>  <AltIds>  (74) 


>  <pKI>  (74) 
7.59

>  <ChemblID>  (74) 
CHEMBL3109186

>  <standardized_canonical_smiles>  (74) 
Cc1cc(N)nc(COC[C@@H]2C[C@@H](OCc3cc(C)cc(N)n3)CN2)c1

$$$$
4KCO_5H4_B_803
     RDKit          3D

 27 29  0  0  0  0  0  0  0  0999 V2000
   22.3010    6.6870   53.9040 F   0  0  0  0  0  0  0  0  0  0  0  0
   21.0700    7.1040   54.2810 C   0  0  0  0  0  0  0  0  0  0  0  0
   20.8060    8.4770   54.4480 C   0  0  0  0  0  0  0  0  0  0  0  0
   19.5400    8.9180   54.8400 C   0  0  0  0  0  0  0  0  0  0  0  0
   18.5370    7.9750   55.0660 C   0  0  0  0  0  0  0  0  0  0  0  0
   20.0610    6.1650   54.5060 C   0  0  0  0  0  0  0  0  0  0  0  0
   18.7970    6.6070   54.9130 C   0  0  0  0  0  0  0  0  0  0  0  0
   17.7010    5.5870   55.1280 C   0  0  0  0  0  0  0  0  0  0  0  0
   17.2640    5.3480   56.5660 C   0  0  0  0  0  0  0  0  0  0  0  0
   17.1290    3.8870   56.7250 N   0  0  0  0  0  0  0  0  0  0  0  0
   18.5310    3.4080   56.5990 C   0  0  0  0  0  0  0  0  0  0  0  0
   18.6990    1.9430   56.9370 C   0  0  0  0  0  0  0  0  0  0  0  0
   16.5320    3.5410   58.0460 C   0  0  0  0  0  0  0  0  0  0  0  0
   15.0740    3.0590   58.1360 C   0  0  0  0  0  0  0  0  0  0  0  0
   14.1290    4.0650   58.2290 C   0  0  0  0  0  0  0  0  0  0  0  0
   12.7270    3.7600   58.3540 C   0  0  0  0  0  0  0  0  0  0  0  0
   12.4010    2.4110   58.4240 C   0  0  0  0  0  0  0  0  0  0  0  0
   13.3270    1.3710   58.3660 C   0  0  0  0  0  0  0  0  0  0  0  0
   14.7180    1.6880   58.2320 C   0  0  0  0  0  0  0  0  0  0  0  0
   12.8920    0.0680   58.4010 N   0  0  0  0  0  0  0  0  0  0  0  0
   11.9460   -0.4340   59.2070 C   0  0  0  0  0  0  0  0  0  0  0  0
   11.3300   -1.5700   58.8210 N   0  0  0  0  0  0  0  0  0  0  0  0
   11.6180    0.3190   60.4650 C   0  0  0  0  0  0  0  0  0  0  0  0
    9.9060    0.3600   60.9020 S   0  0  0  0  0  0  0  0  0  0  0  0
   10.2320    1.3610   62.3000 C   0  0  0  0  0  0  0  0  0  0  0  0
   11.6420    1.5780   62.3860 C   0  0  0  0  0  0  0  0  0  0  0  0
   12.4070    1.0030   61.3690 C   0  0  0  0  0  0  0  0  0  0  0  0
  2  1  1  0
  3  2  2  0
  6  2  1  0
  4  3  1  0
  5  4  2  0
  7  5  1  0
  7  6  2  0
  8  7  1  0
  9  8  1  0
 10  9  1  0
 11 10  1  0
 13 10  1  0
 12 11  1  0
 14 13  1  0
 15 14  2  0
 19 14  1  0
 16 15  1  0
 17 16  2  0
 18 17  1  0
 19 18  2  0
 20 18  1  0
 21 20  1  0
 22 21  2  0
 23 21  1  0
 24 23  1  0
 27 23  2  0
 25 24  1  0
 26 25  2  0
 27 26  1  0
A    1
F33
A    2
C33
A    3
C34
A    4
C35
A    5
C36
A    6
C32
A    7
C31
A    8
C22
A    9
C21
A   10
N18
A   11
C19
A   12
C20
A   13
C17
A   14
C15
A   15
C14
A   16
C13
A   17
C12
A   18
C11
A   19
C16
A   20
N07
A   21
C06
A   22
N08
A   23
C05
A   24
S01
A   25
C02
A   26
C03
A   27
C04
M  END
>  <Id>  (75) 
4KCO_5H4_B_803

>  <ChainId>  (75) 
B

>  <AsymId>  (75) 
J

>  <SeqNum>  (75) 
803

>  <Name>  (75) 
N-[3-({ethyl[2-(3-fluorophenyl)ethyl]amino}methyl)phenyl]thiophene-2-carboximidamide

>  <SystematicName>  (75) 
N-[3-[[ethyl-[2-(3-fluorophenyl)ethyl]amino]methyl]phenyl]thiophene-2-carboximidamide

>  <Synonyms>  (75) 


>  <Type>  (75) 
NON-POLYMER

>  <Formula>  (75) 
C22 H24 F N3 S

>  <ObservedFormula>  (75) 
C22 S F N3

>  <MolecularWeight>  (75) 
381.509

>  <ModifiedDate>  (75) 
2014-02-07

>  <Parent>  (75) 


>  <OneLetterCode>  (75) 


>  <SubcomponentList>  (75) 


>  <AmbiguousFlag>  (75) 
N

>  <InsertionCode>  (75) 


>  <InstanceId>  (75) 
4KCO_5H4_B_803

>  <ChemCompId>  (75) 
5H4

>  <PdbId>  (75) 
4KCO

>  <ResidueNumber>  (75) 
803

>  <InChI>  (75) 
InChI=1S/C22H24FN3S/c1-2-26(12-11-17-6-3-8-19(23)14-17)16-18-7-4-9-20(15-18)25-22(24)21-10-5-13-27-21/h3-10,13-15H,2,11-12,16H2,1H3,(H2,24,25)

>  <InChIKey>  (75) 
DFFRHUPAEPPGQC-UHFFFAOYSA-N

>  <SMILES>  (75) 
[H]/N=C(\c1cccs1)/Nc2cccc(c2)CN(CC)CCc3cccc(c3)F

>  <MissingHeavyAtoms>  (75) 
0

>  <Model>  (75) 
1

>  <AltIds>  (75) 


>  <pKI>  (75) 
7.14

>  <ChemblID>  (75) 
CHEMBL3125049

>  <standardized_canonical_smiles>  (75) 
CCN(CCc1cccc(F)c1)Cc1cccc(NC(=N)c2cccs2)c1

$$$$
4KCN_5H3_B_803
     RDKit          3D

 25 27  0  0  0  0  0  0  0  0999 V2000
   21.6470    5.6430   51.9070 F   0  0  0  0  0  0  0  0  0  0  0  0
   21.2460    5.8780   53.1740 C   0  0  0  0  0  0  0  0  0  0  0  0
   22.2060    6.3010   54.1050 C   0  0  0  0  0  0  0  0  0  0  0  0
   21.8100    6.5270   55.4170 C   0  0  0  0  0  0  0  0  0  0  0  0
   19.8930    5.6770   53.5250 C   0  0  0  0  0  0  0  0  0  0  0  0
   19.4970    5.9190   54.8410 C   0  0  0  0  0  0  0  0  0  0  0  0
   20.4570    6.3400   55.7680 C   0  0  0  0  0  0  0  0  0  0  0  0
   18.0440    5.7210   55.2750 C   0  0  0  0  0  0  0  0  0  0  0  0
   17.9060    4.5560   56.2730 C   0  0  0  0  0  0  0  0  0  0  0  0
   16.4840    4.3820   56.7400 N   0  0  0  0  0  0  0  0  0  0  0  0
   16.3520    3.5030   57.8850 C   0  0  0  0  0  0  0  0  0  0  0  0
   14.9020    3.1060   58.0720 C   0  0  0  0  0  0  0  0  0  0  0  0
   13.9960    4.1390   58.1900 C   0  0  0  0  0  0  0  0  0  0  0  0
   12.5860    3.8120   58.3810 C   0  0  0  0  0  0  0  0  0  0  0  0
   12.3150    2.4420   58.4650 C   0  0  0  0  0  0  0  0  0  0  0  0
   14.5990    1.7340   58.1830 C   0  0  0  0  0  0  0  0  0  0  0  0
   13.2410    1.4130   58.3630 C   0  0  0  0  0  0  0  0  0  0  0  0
   12.8800    0.0920   58.4150 N   0  0  0  0  0  0  0  0  0  0  0  0
   11.9420   -0.4000   59.2270 C   0  0  0  0  0  0  0  0  0  0  0  0
   11.3650   -1.5430   58.8660 N   0  0  0  0  0  0  0  0  0  0  0  0
   11.6120    0.3270   60.4780 C   0  0  0  0  0  0  0  0  0  0  0  0
    9.8950    0.3490   60.8920 S   0  0  0  0  0  0  0  0  0  0  0  0
   10.2020    1.3180   62.3060 C   0  0  0  0  0  0  0  0  0  0  0  0
   11.5960    1.5810   62.4250 C   0  0  0  0  0  0  0  0  0  0  0  0
   12.3660    1.0120   61.4030 C   0  0  0  0  0  0  0  0  0  0  0  0
  2  1  1  0
  3  2  2  0
  5  2  1  0
  4  3  1  0
  7  4  2  0
  6  5  2  0
  7  6  1  0
  8  6  1  0
  9  8  1  0
 10  9  1  0
 11 10  1  0
 12 11  1  0
 13 12  2  0
 16 12  1  0
 14 13  1  0
 15 14  2  0
 17 15  1  0
 17 16  2  0
 18 17  1  0
 19 18  1  0
 20 19  2  0
 21 19  1  0
 22 21  1  0
 25 21  2  0
 23 22  1  0
 24 23  2  0
 25 24  1  0
A    1
F23
A    2
C23
A    3
C24
A    4
C25
A    5
C22
A    6
C21
A    7
C26
A    8
C20
A    9
C19
A   10
N18
A   11
C17
A   12
C15
A   13
C14
A   14
C13
A   15
C12
A   16
C16
A   17
C11
A   18
N07
A   19
C06
A   20
N08
A   21
C05
A   22
S01
A   23
C02
A   24
C03
A   25
C04
M  END
>  <Id>  (76) 
4KCN_5H3_B_803

>  <ChainId>  (76) 
B

>  <AsymId>  (76) 
K

>  <SeqNum>  (76) 
803

>  <Name>  (76) 
N-[3-({[2-(3-fluorophenyl)ethyl]amino}methyl)phenyl]thiophene-2-carboximidamide

>  <SystematicName>  (76) 
N-[3-[[2-(3-fluorophenyl)ethylamino]methyl]phenyl]thiophene-2-carboximidamide

>  <Synonyms>  (76) 


>  <Type>  (76) 
NON-POLYMER

>  <Formula>  (76) 
C20 H20 F N3 S

>  <ObservedFormula>  (76) 
C20 S F N3

>  <MolecularWeight>  (76) 
353.456

>  <ModifiedDate>  (76) 
2014-02-07

>  <Parent>  (76) 


>  <OneLetterCode>  (76) 


>  <SubcomponentList>  (76) 


>  <AmbiguousFlag>  (76) 
N

>  <InsertionCode>  (76) 


>  <InstanceId>  (76) 
4KCN_5H3_B_803

>  <ChemCompId>  (76) 
5H3

>  <PdbId>  (76) 
4KCN

>  <ResidueNumber>  (76) 
803

>  <InChI>  (76) 
InChI=1S/C20H20FN3S/c21-17-6-1-4-15(12-17)9-10-23-14-16-5-2-7-18(13-16)24-20(22)19-8-3-11-25-19/h1-8,11-13,23H,9-10,14H2,(H2,22,24)

>  <InChIKey>  (76) 
QJSHZJYEBIUVCD-UHFFFAOYSA-N

>  <SMILES>  (76) 
[H]/N=C(\c1cccs1)/Nc2cccc(c2)CNCCc3cccc(c3)F

>  <MissingHeavyAtoms>  (76) 
0

>  <Model>  (76) 
1

>  <AltIds>  (76) 


>  <pKI>  (76) 
7.96

>  <ChemblID>  (76) 
CHEMBL3125048

>  <standardized_canonical_smiles>  (76) 
N=C(Nc1cccc(CNCCc2cccc(F)c2)c1)c1cccs1

$$$$
4KCM_1QF_B_803
     RDKit          3D

 34 37  0  0  0  0  0  0  0  0999 V2000
   23.7780    8.7360   55.2370 N   0  0  0  0  0  0  0  0  0  0  0  0
   22.8960    8.3790   54.4030 C   0  0  0  0  0  0  0  0  0  0  0  0
   23.0760    7.1700   53.5280 C   0  0  0  0  0  0  0  0  0  0  0  0
   24.7140    6.6780   53.1840 S   0  0  0  0  0  0  0  0  0  0  0  0
   24.2730    5.3330   52.1610 C   0  0  0  0  0  0  0  0  0  0  0  0
   22.8710    5.3030   52.1220 C   0  0  0  0  0  0  0  0  0  0  0  0
   22.2000    6.3030   52.8600 C   0  0  0  0  0  0  0  0  0  0  0  0
   21.8250    9.1610   54.2780 N   0  0  0  0  0  0  0  0  0  0  0  0
   20.5310    8.8450   54.5110 C   0  0  0  0  0  0  0  0  0  0  0  0
   20.0990    7.6290   55.0820 C   0  0  0  0  0  0  0  0  0  0  0  0
   19.6140    9.8260   54.1350 C   0  0  0  0  0  0  0  0  0  0  0  0
   18.2530    9.6070   54.3300 C   0  0  0  0  0  0  0  0  0  0  0  0
   17.8220    8.4050   54.9080 C   0  0  0  0  0  0  0  0  0  0  0  0
   18.7270    7.4080   55.2890 C   0  0  0  0  0  0  0  0  0  0  0  0
   18.2340    6.1050   55.9140 C   0  0  0  0  0  0  0  0  0  0  0  0
   17.3510    6.2270   57.1000 N   0  0  0  0  0  0  0  0  0  0  0  0
   18.0050    6.8100   58.2860 C   0  0  0  0  0  0  0  0  0  0  0  0
   17.3020    8.0790   58.7660 C   0  0  0  0  0  0  0  0  0  0  0  0
   16.8840    4.8680   57.4220 C   0  0  0  0  0  0  0  0  0  0  0  0
   15.6840    4.9700   58.3680 C   0  0  0  0  0  0  0  0  0  0  0  0
   14.9070    3.6720   58.4380 C   0  0  0  0  0  0  0  0  0  0  0  0
   15.6290    2.4880   58.6130 C   0  0  0  0  0  0  0  0  0  0  0  0
   13.4850    3.6360   58.3990 C   0  0  0  0  0  0  0  0  0  0  0  0
   12.8580    2.3870   58.4970 C   0  0  0  0  0  0  0  0  0  0  0  0
   13.6110    1.2020   58.6790 C   0  0  0  0  0  0  0  0  0  0  0  0
   15.0050    1.2640   58.7320 C   0  0  0  0  0  0  0  0  0  0  0  0
   13.0830   -0.0560   58.7640 N   0  0  0  0  0  0  0  0  0  0  0  0
   12.0420   -0.4380   59.4830 C   0  0  0  0  0  0  0  0  0  0  0  0
   11.4200   -1.4850   59.0970 N   0  0  0  0  0  0  0  0  0  0  0  0
   11.6690    0.3770   60.7020 C   0  0  0  0  0  0  0  0  0  0  0  0
    9.9790    0.5250   61.0890 S   0  0  0  0  0  0  0  0  0  0  0  0
   10.2360    1.5310   62.4870 C   0  0  0  0  0  0  0  0  0  0  0  0
   11.6380    1.7130   62.6010 C   0  0  0  0  0  0  0  0  0  0  0  0
   12.4150    1.1100   61.6070 C   0  0  0  0  0  0  0  0  0  0  0  0
  2  1  2  0
  3  2  1  0
  8  2  1  0
  4  3  1  0
  7  3  2  0
  5  4  1  0
  6  5  2  0
  7  6  1  0
  9  8  1  0
 10  9  2  0
 11  9  1  0
 14 10  1  0
 12 11  2  0
 13 12  1  0
 14 13  2  0
 15 14  1  0
 16 15  1  0
 17 16  1  0
 19 16  1  0
 18 17  1  0
 20 19  1  0
 21 20  1  0
 22 21  2  0
 23 21  1  0
 26 22  1  0
 24 23  2  0
 25 24  1  0
 26 25  2  0
 27 25  1  0
 28 27  1  0
 29 28  2  0
 30 28  1  0
 31 30  1  0
 34 30  2  0
 32 31  1  0
 33 32  2  0
 34 33  1  0
A    1
N06
A    2
C06
A    3
C05
A    4
S01
A    5
C02
A    6
C03
A    7
C04
A    8
N07
A    9
C11
A   10
C16
A   11
C12
A   12
C13
A   13
C14
A   14
C15
A   15
C17
A   16
N18
A   17
C19
A   18
C20
A   19
C38
A   20
C37
A   21
C34
A   22
C35
A   23
C33
A   24
C32
A   25
C31
A   26
C36
A   27
N27
A   28
C26
A   29
N26
A   30
C25
A   31
S21
A   32
C22
A   33
C23
A   34
C24
M  END
>  <Id>  (77) 
4KCM_1QF_B_803

>  <ChainId>  (77) 
B

>  <AsymId>  (77) 
J

>  <SeqNum>  (77) 
803

>  <Name>  (77) 
N-(4-{2-[ethyl(3-{[(E)-imino(thiophen-2-yl)methyl]amino}benzyl)amino]ethyl}phenyl)thiophene-2-carboximidamide

>  <SystematicName>  (77) 
N-[4-[2-[ethyl-[[3-[(C-thiophen-2-ylcarbonimidoyl)amino]phenyl]methyl]amino]ethyl]phenyl]thiophene-2-carboximidamide

>  <Synonyms>  (77) 


>  <Type>  (77) 
NON-POLYMER

>  <Formula>  (77) 
C27 H29 N5 S2

>  <ObservedFormula>  (77) 
C27 S2 N5

>  <MolecularWeight>  (77) 
487.683

>  <ModifiedDate>  (77) 
2014-02-07

>  <Parent>  (77) 


>  <OneLetterCode>  (77) 


>  <SubcomponentList>  (77) 


>  <AmbiguousFlag>  (77) 
N

>  <InsertionCode>  (77) 


>  <InstanceId>  (77) 
4KCM_1QF_B_803

>  <ChemCompId>  (77) 
1QF

>  <PdbId>  (77) 
4KCM

>  <ResidueNumber>  (77) 
803

>  <InChI>  (77) 
InChI=1S/C27H29N5S2/c1-2-32(19-21-6-3-7-23(18-21)31-27(29)25-9-5-17-34-25)15-14-20-10-12-22(13-11-20)30-26(28)24-8-4-16-33-24/h3-13,16-18H,2,14-15,19H2,1H3,(H2,28,30)(H2,29,31)

>  <InChIKey>  (77) 
ZAOJVZLLICOZMJ-UHFFFAOYSA-N

>  <SMILES>  (77) 
[H]/N=C(\c1cccs1)/Nc2ccc(cc2)CCN(CC)Cc3cccc(c3)N/C(=N/[H])/c4cccs4

>  <MissingHeavyAtoms>  (77) 
0

>  <Model>  (77) 
1

>  <AltIds>  (77) 


>  <pKI>  (77) 
7.31

>  <ChemblID>  (77) 
CHEMBL3128247

>  <standardized_canonical_smiles>  (77) 
CCN(CCc1ccc(NC(=N)c2cccs2)cc1)Cc1cccc(NC(=N)c2cccs2)c1

$$$$
4KCL_H44_B_803
     RDKit          3D

 32 35  0  0  0  0  0  0  0  0999 V2000
   24.4280    7.1410   54.2770 N   0  0  0  0  0  0  0  0  0  0  0  0
   23.4560    6.9160   53.5080 C   0  0  0  0  0  0  0  0  0  0  0  0
   23.5310    5.7490   52.5730 C   0  0  0  0  0  0  0  0  0  0  0  0
   24.9410    5.6620   51.5770 S   0  0  0  0  0  0  0  0  0  0  0  0
   24.4890    4.1930   50.7660 C   0  0  0  0  0  0  0  0  0  0  0  0
   23.2560    3.8090   51.2970 C   0  0  0  0  0  0  0  0  0  0  0  0
   22.7180    4.6500   52.2880 C   0  0  0  0  0  0  0  0  0  0  0  0
   22.3970    7.7360   53.5370 N   0  0  0  0  0  0  0  0  0  0  0  0
   21.2200    7.4110   54.1260 C   0  0  0  0  0  0  0  0  0  0  0  0
   21.0670    6.1590   54.7220 C   0  0  0  0  0  0  0  0  0  0  0  0
   19.8640    5.8260   55.3190 C   0  0  0  0  0  0  0  0  0  0  0  0
   18.8000    6.7360   55.3280 C   0  0  0  0  0  0  0  0  0  0  0  0
   18.9450    7.9990   54.7360 C   0  0  0  0  0  0  0  0  0  0  0  0
   20.1610    8.3350   54.1350 C   0  0  0  0  0  0  0  0  0  0  0  0
   17.4950    6.3440   55.9950 C   0  0  0  0  0  0  0  0  0  0  0  0
   17.5670    4.9450   56.6060 C   0  0  0  0  0  0  0  0  0  0  0  0
   16.4520    4.6410   57.4890 N   0  0  0  0  0  0  0  0  0  0  0  0
   16.4700    3.3750   58.2030 C   0  0  0  0  0  0  0  0  0  0  0  0
   15.0610    2.9060   58.3160 C   0  0  0  0  0  0  0  0  0  0  0  0
   14.1090    3.9150   58.3380 C   0  0  0  0  0  0  0  0  0  0  0  0
   12.7600    3.5720   58.4600 C   0  0  0  0  0  0  0  0  0  0  0  0
   12.4310    2.2350   58.5270 C   0  0  0  0  0  0  0  0  0  0  0  0
   13.3770    1.2180   58.5150 C   0  0  0  0  0  0  0  0  0  0  0  0
   14.7300    1.5380   58.4230 C   0  0  0  0  0  0  0  0  0  0  0  0
   12.9850   -0.0830   58.5900 N   0  0  0  0  0  0  0  0  0  0  0  0
   11.9380   -0.4730   59.2970 C   0  0  0  0  0  0  0  0  0  0  0  0
   11.2440   -1.5430   58.8770 N   0  0  0  0  0  0  0  0  0  0  0  0
   11.6040    0.2950   60.5320 C   0  0  0  0  0  0  0  0  0  0  0  0
    9.8810    0.3510   60.8970 S   0  0  0  0  0  0  0  0  0  0  0  0
   10.0880    1.3750   62.2860 C   0  0  0  0  0  0  0  0  0  0  0  0
   11.5060    1.6070   62.4300 C   0  0  0  0  0  0  0  0  0  0  0  0
   12.3190    1.0370   61.4450 C   0  0  0  0  0  0  0  0  0  0  0  0
  2  1  2  0
  3  2  1  0
  8  2  1  0
  4  3  1  0
  7  3  2  0
  5  4  1  0
  6  5  2  0
  7  6  1  0
  9  8  1  0
 10  9  2  0
 14  9  1  0
 11 10  1  0
 12 11  2  0
 13 12  1  0
 15 12  1  0
 14 13  2  0
 16 15  1  0
 17 16  1  0
 18 17  1  0
 19 18  1  0
 20 19  2  0
 24 19  1  0
 21 20  1  0
 22 21  2  0
 23 22  1  0
 24 23  2  0
 25 23  1  0
 26 25  1  0
 27 26  2  0
 28 26  1  0
 29 28  1  0
 32 28  2  0
 30 29  1  0
 31 30  2  0
 32 31  1  0
A    1
N26
A    2
C26
A    3
C25
A    4
S21
A    5
C22
A    6
C23
A    7
C24
A    8
N27
A    9
C31
A   10
C36
A   11
C35
A   12
C34
A   13
C33
A   14
C32
A   15
C37
A   16
C38
A   17
N18
A   18
C17
A   19
C15
A   20
C14
A   21
C13
A   22
C12
A   23
C11
A   24
C16
A   25
N07
A   26
C06
A   27
N06
A   28
C05
A   29
S01
A   30
C02
A   31
C03
A   32
C04
M  END
>  <Id>  (78) 
4KCL_H44_B_803

>  <ChainId>  (78) 
B

>  <AsymId>  (78) 
J

>  <SeqNum>  (78) 
803

>  <Name>  (78) 
N-(4-{2-[(3-{[(E)-imino(thiophen-2-yl)methyl]amino}benzyl)amino]ethyl}phenyl)thiophene-2-carboximidamide

>  <SystematicName>  (78) 
N-[4-[2-[[3-[(C-thiophen-2-ylcarbonimidoyl)amino]phenyl]methylamino]ethyl]phenyl]thiophene-2-carboximidamide

>  <Synonyms>  (78) 


>  <Type>  (78) 
NON-POLYMER

>  <Formula>  (78) 
C25 H25 N5 S2

>  <ObservedFormula>  (78) 
C25 S2 N5

>  <MolecularWeight>  (78) 
459.63

>  <ModifiedDate>  (78) 
2014-02-07

>  <Parent>  (78) 


>  <OneLetterCode>  (78) 


>  <SubcomponentList>  (78) 


>  <AmbiguousFlag>  (78) 
N

>  <InsertionCode>  (78) 


>  <InstanceId>  (78) 
4KCL_H44_B_803

>  <ChemCompId>  (78) 
H44

>  <PdbId>  (78) 
4KCL

>  <ResidueNumber>  (78) 
803

>  <InChI>  (78) 
InChI=1S/C25H25N5S2/c26-24(22-6-2-14-31-22)29-20-10-8-18(9-11-20)12-13-28-17-19-4-1-5-21(16-19)30-25(27)23-7-3-15-32-23/h1-11,14-16,28H,12-13,17H2,(H2,26,29)(H2,27,30)

>  <InChIKey>  (78) 
RWYJTZOFPFOVAE-UHFFFAOYSA-N

>  <SMILES>  (78) 
[H]/N=C(/c1cccs1)\Nc2ccc(cc2)CCNCc3cccc(c3)N/C(=N/[H])/c4cccs4

>  <MissingHeavyAtoms>  (78) 
0

>  <Model>  (78) 
1

>  <AltIds>  (78) 


>  <pKI>  (78) 
8.3

>  <ChemblID>  (78) 
CHEMBL3128246

>  <standardized_canonical_smiles>  (78) 
N=C(Nc1ccc(CCNCc2cccc(NC(=N)c3cccs3)c2)cc1)c1cccs1

$$$$
4KCK_H45_B_803
     RDKit          3D

 32 35  0  0  0  0  0  0  0  0999 V2000
   23.8540    6.7050   54.1580 N   0  0  0  0  0  0  0  0  0  0  0  0
   23.2720    5.8150   53.3540 C   0  0  0  0  0  0  0  0  0  0  0  0
   24.1380    4.8740   52.6040 C   0  0  0  0  0  0  0  0  0  0  0  0
   23.8530    4.8920   50.9000 S   0  0  0  0  0  0  0  0  0  0  0  0
   25.0590    3.6790   50.5640 C   0  0  0  0  0  0  0  0  0  0  0  0
   25.6400    3.3070   51.7870 C   0  0  0  0  0  0  0  0  0  0  0  0
   25.1420    3.9550   52.9320 C   0  0  0  0  0  0  0  0  0  0  0  0
   21.9470    5.7210   53.1510 N   0  0  0  0  0  0  0  0  0  0  0  0
   20.9660    6.4040   53.7920 C   0  0  0  0  0  0  0  0  0  0  0  0
   19.7940    5.7150   54.1060 C   0  0  0  0  0  0  0  0  0  0  0  0
   18.7560    6.3800   54.7510 C   0  0  0  0  0  0  0  0  0  0  0  0
   18.8760    7.7380   55.0720 C   0  0  0  0  0  0  0  0  0  0  0  0
   20.0410    8.4360   54.7470 C   0  0  0  0  0  0  0  0  0  0  0  0
   21.0860    7.7650   54.1070 C   0  0  0  0  0  0  0  0  0  0  0  0
   17.4910    5.6220   55.0970 C   0  0  0  0  0  0  0  0  0  0  0  0
   17.8100    4.6300   56.2070 C   0  0  0  0  0  0  0  0  0  0  0  0
   16.6420    4.4400   57.0180 N   0  0  0  0  0  0  0  0  0  0  0  0
   16.6380    3.4070   58.0170 C   0  0  0  0  0  0  0  0  0  0  0  0
   15.1660    3.0900   58.2080 C   0  0  0  0  0  0  0  0  0  0  0  0
   14.3010    4.1490   58.3450 C   0  0  0  0  0  0  0  0  0  0  0  0
   12.9350    3.9030   58.5510 C   0  0  0  0  0  0  0  0  0  0  0  0
   12.4500    2.5920   58.5880 C   0  0  0  0  0  0  0  0  0  0  0  0
   13.3340    1.5070   58.4660 C   0  0  0  0  0  0  0  0  0  0  0  0
   14.7050    1.7570   58.2690 C   0  0  0  0  0  0  0  0  0  0  0  0
   12.8900    0.2010   58.4850 N   0  0  0  0  0  0  0  0  0  0  0  0
   12.0350   -0.3160   59.3480 C   0  0  0  0  0  0  0  0  0  0  0  0
   11.3390   -1.4390   59.0710 N   0  0  0  0  0  0  0  0  0  0  0  0
   11.8040    0.3890   60.6270 C   0  0  0  0  0  0  0  0  0  0  0  0
   10.1120    0.4840   61.0380 S   0  0  0  0  0  0  0  0  0  0  0  0
   10.4300    1.4000   62.4880 C   0  0  0  0  0  0  0  0  0  0  0  0
   11.8300    1.5560   62.5700 C   0  0  0  0  0  0  0  0  0  0  0  0
   12.6020    1.0350   61.5310 C   0  0  0  0  0  0  0  0  0  0  0  0
  2  1  2  0
  3  2  1  0
  8  2  1  0
  4  3  1  0
  7  3  2  0
  5  4  1  0
  6  5  2  0
  7  6  1  0
  9  8  1  0
 10  9  2  0
 14  9  1  0
 11 10  1  0
 12 11  2  0
 15 11  1  0
 13 12  1  0
 14 13  2  0
 16 15  1  0
 17 16  1  0
 18 17  1  0
 19 18  1  0
 20 19  2  0
 24 19  1  0
 21 20  1  0
 22 21  2  0
 23 22  1  0
 24 23  2  0
 25 23  1  0
 26 25  1  0
 27 26  2  0
 28 26  1  0
 29 28  1  0
 32 28  2  0
 30 29  1  0
 31 30  2  0
 32 31  1  0
A    1
N26
A    2
C26
A    3
C25
A    4
S21
A    5
C22
A    6
C23
A    7
C24
A    8
N27
A    9
C31
A   10
C36
A   11
C35
A   12
C34
A   13
C33
A   14
C32
A   15
C37
A   16
C38
A   17
N18
A   18
C17
A   19
C15
A   20
C14
A   21
C13
A   22
C12
A   23
C11
A   24
C16
A   25
N07
A   26
C06
A   27
N06
A   28
C05
A   29
S01
A   30
C02
A   31
C03
A   32
C04
M  END
>  <Id>  (79) 
4KCK_H45_B_803

>  <ChainId>  (79) 
B

>  <AsymId>  (79) 
J

>  <SeqNum>  (79) 
803

>  <Name>  (79) 
N-(3-{2-[(3-{[(Z)-imino(thiophen-2-yl)methyl]amino}benzyl)amino]ethyl}phenyl)thiophene-2-carboximidamide

>  <SystematicName>  (79) 
N-[3-[2-[[3-[(C-thiophen-2-ylcarbonimidoyl)amino]phenyl]methylamino]ethyl]phenyl]thiophene-2-carboximidamide

>  <Synonyms>  (79) 


>  <Type>  (79) 
NON-POLYMER

>  <Formula>  (79) 
C25 H25 N5 S2

>  <ObservedFormula>  (79) 
C25 S2 N5

>  <MolecularWeight>  (79) 
459.63

>  <ModifiedDate>  (79) 
2014-02-07

>  <Parent>  (79) 


>  <OneLetterCode>  (79) 


>  <SubcomponentList>  (79) 


>  <AmbiguousFlag>  (79) 
N

>  <InsertionCode>  (79) 


>  <InstanceId>  (79) 
4KCK_H45_B_803

>  <ChemCompId>  (79) 
H45

>  <PdbId>  (79) 
4KCK

>  <ResidueNumber>  (79) 
803

>  <InChI>  (79) 
InChI=1S/C25H25N5S2/c26-24(22-9-3-13-31-22)29-20-7-1-5-18(15-20)11-12-28-17-19-6-2-8-21(16-19)30-25(27)23-10-4-14-32-23/h1-10,13-16,28H,11-12,17H2,(H2,26,29)(H2,27,30)

>  <InChIKey>  (79) 
XOPUOZGTJJXXTH-UHFFFAOYSA-N

>  <SMILES>  (79) 
[H]/N=C(\c1cccs1)/Nc2cccc(c2)CCNCc3cccc(c3)N/C(=N\[H])/c4cccs4

>  <MissingHeavyAtoms>  (79) 
0

>  <Model>  (79) 
1

>  <AltIds>  (79) 


>  <pKI>  (79) 
8.3

>  <ChemblID>  (79) 
CHEMBL3128245

>  <standardized_canonical_smiles>  (79) 
N=C(Nc1cccc(CCNCc2cccc(NC(=N)c3cccs3)c2)c1)c1cccs1

$$$$
4KCJ_H36_B_804
     RDKit          3D

 32 35  0  0  0  0  0  0  0  0999 V2000
   22.8550    2.0620   54.6470 N   0  0  0  0  0  0  0  0  0  0  0  0
   23.5310    3.2120   54.6370 C   0  0  0  0  0  0  0  0  0  0  0  0
   24.2550    3.5370   53.3430 C   0  0  0  0  0  0  0  0  0  0  0  0
   24.7690    5.1700   53.0000 S   0  0  0  0  0  0  0  0  0  0  0  0
   25.4370    4.8410   51.4340 C   0  0  0  0  0  0  0  0  0  0  0  0
   25.2410    3.4740   51.2130 C   0  0  0  0  0  0  0  0  0  0  0  0
   24.6010    2.7490   52.2460 C   0  0  0  0  0  0  0  0  0  0  0  0
   23.5020    4.0130   55.7260 N   0  0  0  0  0  0  0  0  0  0  0  0
   22.6480    3.8780   56.7970 C   0  0  0  0  0  0  0  0  0  0  0  0
   21.2540    3.7580   56.6310 C   0  0  0  0  0  0  0  0  0  0  0  0
   23.1510    3.8610   58.1050 C   0  0  0  0  0  0  0  0  0  0  0  0
   22.2820    3.7220   59.2110 C   0  0  0  0  0  0  0  0  0  0  0  0
   20.8910    3.5900   59.0370 C   0  0  0  0  0  0  0  0  0  0  0  0
   20.3740    3.6140   57.7260 C   0  0  0  0  0  0  0  0  0  0  0  0
   19.0140    3.4690   57.5200 O   0  0  0  0  0  0  0  0  0  0  0  0
   18.3420    4.0570   56.3980 C   0  0  0  0  0  0  0  0  0  0  0  0
   16.9210    4.4040   56.8540 C   0  0  0  0  0  0  0  0  0  0  0  0
   16.4410    3.2620   57.5460 O   0  0  0  0  0  0  0  0  0  0  0  0
   15.1040    3.0010   57.7400 C   0  0  0  0  0  0  0  0  0  0  0  0
   14.1920    4.0330   57.8580 C   0  0  0  0  0  0  0  0  0  0  0  0
   12.8590    3.7430   58.0910 C   0  0  0  0  0  0  0  0  0  0  0  0
   12.4070    2.4390   58.2170 C   0  0  0  0  0  0  0  0  0  0  0  0
   14.6760    1.6740   57.9320 C   0  0  0  0  0  0  0  0  0  0  0  0
   13.3270    1.3710   58.1300 C   0  0  0  0  0  0  0  0  0  0  0  0
   12.9580    0.0360   58.2120 N   0  0  0  0  0  0  0  0  0  0  0  0
   11.9690   -0.4480   58.9730 C   0  0  0  0  0  0  0  0  0  0  0  0
   11.2680   -1.5370   58.6370 N   0  0  0  0  0  0  0  0  0  0  0  0
   11.6780    0.2700   60.2470 C   0  0  0  0  0  0  0  0  0  0  0  0
   10.0010    0.3150   60.7490 S   0  0  0  0  0  0  0  0  0  0  0  0
   10.3340    1.2460   62.1460 C   0  0  0  0  0  0  0  0  0  0  0  0
   11.7310    1.4200   62.1820 C   0  0  0  0  0  0  0  0  0  0  0  0
   12.4860    0.9040   61.1270 C   0  0  0  0  0  0  0  0  0  0  0  0
  2  1  2  0
  3  2  1  0
  8  2  1  0
  4  3  1  0
  7  3  2  0
  5  4  1  0
  6  5  2  0
  7  6  1  0
  9  8  1  0
 10  9  2  0
 11  9  1  0
 14 10  1  0
 12 11  2  0
 13 12  1  0
 14 13  2  0
 15 14  1  0
 16 15  1  0
 17 16  1  0
 18 17  1  0
 19 18  1  0
 20 19  2  0
 23 19  1  0
 21 20  1  0
 22 21  2  0
 24 22  1  0
 24 23  2  0
 25 24  1  0
 26 25  1  0
 27 26  2  0
 28 26  1  0
 29 28  1  0
 32 28  2  0
 30 29  1  0
 31 30  2  0
 32 31  1  0
A    1
N28
A    2
C26
A    3
C25
A    4
S21
A    5
C22
A    6
C23
A    7
C24
A    8
N27
A    9
C31
A   10
C36
A   11
C32
A   12
C33
A   13
C34
A   14
C35
A   15
O37
A   16
C38
A   17
C18
A   18
O17
A   19
C15
A   20
C14
A   21
C13
A   22
C12
A   23
C16
A   24
C11
A   25
N07
A   26
C06
A   27
N08
A   28
C05
A   29
S01
A   30
C02
A   31
C03
A   32
C04
M  END
>  <Id>  (80) 
4KCJ_H36_B_804

>  <ChainId>  (80) 
B

>  <AsymId>  (80) 
K

>  <SeqNum>  (80) 
804

>  <Name>  (80) 
N,N'-[ethane-1,2-diylbis(oxybenzene-3,1-diyl)]dithiophene-2-carboximidamide

>  <SystematicName>  (80) 
N-[3-[2-[3-[(C-thiophen-2-ylcarbonimidoyl)amino]phenoxy]ethoxy]phenyl]thiophene-2-carboximidamide

>  <Synonyms>  (80) 


>  <Type>  (80) 
NON-POLYMER

>  <Formula>  (80) 
C24 H22 N4 O2 S2

>  <ObservedFormula>  (80) 
C24 S2 N4 O2

>  <MolecularWeight>  (80) 
462.587

>  <ModifiedDate>  (80) 
2014-02-07

>  <Parent>  (80) 


>  <OneLetterCode>  (80) 


>  <SubcomponentList>  (80) 


>  <AmbiguousFlag>  (80) 
N

>  <InsertionCode>  (80) 


>  <InstanceId>  (80) 
4KCJ_H36_B_804

>  <ChemCompId>  (80) 
H36

>  <PdbId>  (80) 
4KCJ

>  <ResidueNumber>  (80) 
804

>  <InChI>  (80) 
InChI=1S/C24H22N4O2S2/c25-23(21-9-3-13-31-21)27-17-5-1-7-19(15-17)29-11-12-30-20-8-2-6-18(16-20)28-24(26)22-10-4-14-32-22/h1-10,13-16H,11-12H2,(H2,25,27)(H2,26,28)

>  <InChIKey>  (80) 
FJVFGYSUSVNZDG-UHFFFAOYSA-N

>  <SMILES>  (80) 
[H]/N=C(\Nc1cc(ccc1)OCCOc2cc(ccc2)N/C(=N/[H])/c3sccc3)/c4sccc4

>  <MissingHeavyAtoms>  (80) 
0

>  <Model>  (80) 
1

>  <AltIds>  (80) 


>  <pKI>  (80) 
6.89

>  <ChemblID>  (80) 
CHEMBL3128243

>  <standardized_canonical_smiles>  (80) 
N=C(Nc1cccc(OCCOc2cccc(NC(=N)c3cccs3)c2)c1)c1cccs1

$$$$
4KCI_1QE_B_803
     RDKit          3D

 30 33  0  0  0  0  0  0  0  0999 V2000
   11.3610   -1.6910   58.6540 N   0  0  0  0  0  0  0  0  0  0  0  0
   11.9030   -0.4820   58.9280 C   0  0  0  0  0  0  0  0  0  0  0  0
   11.5840    0.2240   60.1940 C   0  0  0  0  0  0  0  0  0  0  0  0
    9.9750    0.1730   60.7380 S   0  0  0  0  0  0  0  0  0  0  0  0
   10.3670    1.0900   62.1530 C   0  0  0  0  0  0  0  0  0  0  0  0
   11.7400    1.3470   62.2050 C   0  0  0  0  0  0  0  0  0  0  0  0
   12.4140    0.8370   61.1150 C   0  0  0  0  0  0  0  0  0  0  0  0
   12.7350    0.0880   58.0600 N   0  0  0  0  0  0  0  0  0  0  0  0
   13.0560    1.4360   58.0020 C   0  0  0  0  0  0  0  0  0  0  0  0
   14.4010    1.8220   57.8140 C   0  0  0  0  0  0  0  0  0  0  0  0
   12.1060    2.4170   58.3310 C   0  0  0  0  0  0  0  0  0  0  0  0
   12.5120    3.7290   58.4020 C   0  0  0  0  0  0  0  0  0  0  0  0
   13.8360    4.0900   58.1920 C   0  0  0  0  0  0  0  0  0  0  0  0
   14.7870    3.1500   57.8950 C   0  0  0  0  0  0  0  0  0  0  0  0
   16.2120    3.5860   57.6840 C   0  0  0  0  0  0  0  0  0  0  0  0
   16.3270    4.5630   56.5050 C   0  0  0  0  0  0  0  0  0  0  0  0
   17.7720    4.9640   56.1970 C   0  0  0  0  0  0  0  0  0  0  0  0
   18.8380    4.0360   56.2400 C   0  0  0  0  0  0  0  0  0  0  0  0
   20.1330    4.4580   55.9400 C   0  0  0  0  0  0  0  0  0  0  0  0
   20.3700    5.7940   55.6170 C   0  0  0  0  0  0  0  0  0  0  0  0
   18.0280    6.2990   55.8600 C   0  0  0  0  0  0  0  0  0  0  0  0
   19.3230    6.7420   55.5750 C   0  0  0  0  0  0  0  0  0  0  0  0
   19.4440    8.0300   55.1180 N   0  0  0  0  0  0  0  0  0  0  0  0
   20.2930    8.3990   54.1400 C   0  0  0  0  0  0  0  0  0  0  0  0
   20.1500    9.6360   53.6320 N   0  0  0  0  0  0  0  0  0  0  0  0
   21.3180    7.4600   53.5440 C   0  0  0  0  0  0  0  0  0  0  0  0
   22.9810    7.4760   54.0500 S   0  0  0  0  0  0  0  0  0  0  0  0
   23.4380    6.1940   52.9740 C   0  0  0  0  0  0  0  0  0  0  0  0
   22.3400    5.7600   52.2400 C   0  0  0  0  0  0  0  0  0  0  0  0
   21.1580    6.4620   52.5590 C   0  0  0  0  0  0  0  0  0  0  0  0
  2  1  2  0
  3  2  1  0
  8  2  1  0
  4  3  1  0
  7  3  2  0
  5  4  1  0
  6  5  2  0
  7  6  1  0
  9  8  1  0
 10  9  2  0
 11  9  1  0
 14 10  1  0
 12 11  2  0
 13 12  1  0
 14 13  2  0
 15 14  1  0
 16 15  1  0
 17 16  1  0
 18 17  2  0
 21 17  1  0
 19 18  1  0
 20 19  2  0
 22 20  1  0
 22 21  2  0
 23 22  1  0
 24 23  1  0
 25 24  2  0
 26 24  1  0
 27 26  1  0
 30 26  2  0
 28 27  1  0
 29 28  2  0
 30 29  1  0
A    1
N08
A    2
C06
A    3
C05
A    4
S01
A    5
C02
A    6
C03
A    7
C04
A    8
N07
A    9
C11
A   10
C16
A   11
C12
A   12
C13
A   13
C14
A   14
C15
A   15
C17
A   16
C37
A   17
C35
A   18
C34
A   19
C33
A   20
C32
A   21
C36
A   22
C31
A   23
N27
A   24
C26
A   25
N28
A   26
C25
A   27
S21
A   28
C22
A   29
C23
A   30
C24
M  END
>  <Id>  (81) 
4KCI_1QE_B_803

>  <ChainId>  (81) 
B

>  <AsymId>  (81) 
J

>  <SeqNum>  (81) 
803

>  <Name>  (81) 
N,N'-(ethane-1,2-diyldibenzene-3,1-diyl)dithiophene-2-carboximidamide

>  <SystematicName>  (81) 
N-[3-[2-[3-[(C-thiophen-2-ylcarbonimidoyl)amino]phenyl]ethyl]phenyl]thiophene-2-carboximidamide

>  <Synonyms>  (81) 


>  <Type>  (81) 
NON-POLYMER

>  <Formula>  (81) 
C24 H22 N4 S2

>  <ObservedFormula>  (81) 
C24 S2 N4

>  <MolecularWeight>  (81) 
430.588

>  <ModifiedDate>  (81) 
2014-02-07

>  <Parent>  (81) 


>  <OneLetterCode>  (81) 


>  <SubcomponentList>  (81) 


>  <AmbiguousFlag>  (81) 
N

>  <InsertionCode>  (81) 


>  <InstanceId>  (81) 
4KCI_1QE_B_803

>  <ChemCompId>  (81) 
1QE

>  <PdbId>  (81) 
4KCI

>  <ResidueNumber>  (81) 
803

>  <InChI>  (81) 
InChI=1S/C24H22N4S2/c25-23(21-9-3-13-29-21)27-19-7-1-5-17(15-19)11-12-18-6-2-8-20(16-18)28-24(26)22-10-4-14-30-22/h1-10,13-16H,11-12H2,(H2,25,27)(H2,26,28)

>  <InChIKey>  (81) 
MNMWXAHXXVXJBB-UHFFFAOYSA-N

>  <SMILES>  (81) 
[H]/N=C(\Nc1cc(ccc1)CCc2cc(ccc2)N/C(=N/[H])/c3sccc3)/c4sccc4

>  <MissingHeavyAtoms>  (81) 
0

>  <Model>  (81) 
1

>  <AltIds>  (81) 


>  <pKI>  (81) 
6.13

>  <ChemblID>  (81) 
CHEMBL3128241

>  <standardized_canonical_smiles>  (81) 
N=C(Nc1cccc(CCc2cccc(NC(=N)c3cccs3)c2)c1)c1cccs1

$$$$
4KCH_H38_B_804
     RDKit          3D

 28 31  0  0  0  0  0  0  0  0999 V2000
   19.8380    5.6490   54.4300 N   0  0  0  0  0  0  0  0  0  0  0  0
   18.8410    6.4580   54.7990 C   0  0  0  0  0  0  0  0  0  0  0  0
   18.7950    7.8530   54.2810 C   0  0  0  0  0  0  0  0  0  0  0  0
   20.2260    8.4290   53.5220 S   0  0  0  0  0  0  0  0  0  0  0  0
   19.5790    9.9950   53.1320 C   0  0  0  0  0  0  0  0  0  0  0  0
   18.2630   10.0180   53.6000 C   0  0  0  0  0  0  0  0  0  0  0  0
   17.8190    8.8440   54.2310 C   0  0  0  0  0  0  0  0  0  0  0  0
   17.8440    6.0700   55.5980 N   0  0  0  0  0  0  0  0  0  0  0  0
   17.7770    4.9320   56.3400 C   0  0  0  0  0  0  0  0  0  0  0  0
   16.4910    4.5780   56.7470 C   0  0  0  0  0  0  0  0  0  0  0  0
   18.8940    4.1460   56.7200 C   0  0  0  0  0  0  0  0  0  0  0  0
   18.7160    2.9980   57.4840 C   0  0  0  0  0  0  0  0  0  0  0  0
   17.4040    2.6650   57.8820 C   0  0  0  0  0  0  0  0  0  0  0  0
   16.2940    3.4670   57.5340 C   0  0  0  0  0  0  0  0  0  0  0  0
   14.8910    3.1250   57.8730 C   0  0  0  0  0  0  0  0  0  0  0  0
   13.9500    4.1180   58.0930 C   0  0  0  0  0  0  0  0  0  0  0  0
   12.6320    3.8030   58.4070 C   0  0  0  0  0  0  0  0  0  0  0  0
   12.2220    2.4860   58.4450 C   0  0  0  0  0  0  0  0  0  0  0  0
   14.4870    1.7920   57.9280 C   0  0  0  0  0  0  0  0  0  0  0  0
   13.1570    1.4550   58.1980 C   0  0  0  0  0  0  0  0  0  0  0  0
   12.8230    0.1180   58.2280 N   0  0  0  0  0  0  0  0  0  0  0  0
   11.9700   -0.4240   59.0940 C   0  0  0  0  0  0  0  0  0  0  0  0
   11.3130   -1.5380   58.7720 N   0  0  0  0  0  0  0  0  0  0  0  0
   11.7280    0.2640   60.4010 C   0  0  0  0  0  0  0  0  0  0  0  0
   10.0730    0.2580   60.8870 S   0  0  0  0  0  0  0  0  0  0  0  0
   10.3770    1.1890   62.3150 C   0  0  0  0  0  0  0  0  0  0  0  0
   11.7420    1.4560   62.3300 C   0  0  0  0  0  0  0  0  0  0  0  0
   12.5170    0.9740   61.2760 C   0  0  0  0  0  0  0  0  0  0  0  0
  2  1  2  0
  3  2  1  0
  8  2  1  0
  4  3  1  0
  7  3  2  0
  5  4  1  0
  6  5  2  0
  7  6  1  0
  9  8  1  0
 10  9  2  0
 11  9  1  0
 14 10  1  0
 12 11  2  0
 13 12  1  0
 14 13  2  0
 15 14  1  0
 16 15  2  0
 19 15  1  0
 17 16  1  0
 18 17  2  0
 20 18  1  0
 20 19  2  0
 21 20  1  0
 22 21  1  0
 23 22  2  0
 24 22  1  0
 25 24  1  0
 28 24  2  0
 26 25  1  0
 27 26  2  0
 28 27  1  0
A    1
N26
A    2
C26
A    3
C25
A    4
S21
A    5
C22
A    6
C23
A    7
C24
A    8
N27
A    9
C31
A   10
C36
A   11
C32
A   12
C33
A   13
C34
A   14
C35
A   15
C15
A   16
C14
A   17
C13
A   18
C12
A   19
C16
A   20
C11
A   21
N07
A   22
C06
A   23
N06
A   24
C05
A   25
S01
A   26
C02
A   27
C03
A   28
C04
M  END
>  <Id>  (82) 
4KCH_H38_B_804

>  <ChainId>  (82) 
B

>  <AsymId>  (82) 
K

>  <SeqNum>  (82) 
804

>  <Name>  (82) 
N,N'-biphenyl-3,3'-diyldithiophene-2-carboximidamide

>  <SystematicName>  (82) 
N-[3-[3-[(C-thiophen-2-ylcarbonimidoyl)amino]phenyl]phenyl]thiophene-2-carboximidamide

>  <Synonyms>  (82) 


>  <Type>  (82) 
NON-POLYMER

>  <Formula>  (82) 
C22 H18 N4 S2

>  <ObservedFormula>  (82) 
C22 S2 N4

>  <MolecularWeight>  (82) 
402.535

>  <ModifiedDate>  (82) 
2014-02-07

>  <Parent>  (82) 


>  <OneLetterCode>  (82) 


>  <SubcomponentList>  (82) 


>  <AmbiguousFlag>  (82) 
N

>  <InsertionCode>  (82) 


>  <InstanceId>  (82) 
4KCH_H38_B_804

>  <ChemCompId>  (82) 
H38

>  <PdbId>  (82) 
4KCH

>  <ResidueNumber>  (82) 
804

>  <InChI>  (82) 
InChI=1S/C22H18N4S2/c23-21(19-9-3-11-27-19)25-17-7-1-5-15(13-17)16-6-2-8-18(14-16)26-22(24)20-10-4-12-28-20/h1-14H,(H2,23,25)(H2,24,26)

>  <InChIKey>  (82) 
ACHJMDNIBGAZJH-UHFFFAOYSA-N

>  <SMILES>  (82) 
[H]/N=C(\Nc1cc(ccc1)c2cc(ccc2)N/C(=N/[H])/c3sccc3)/c4sccc4

>  <MissingHeavyAtoms>  (82) 
0

>  <Model>  (82) 
1

>  <AltIds>  (82) 


>  <pKI>  (82) 
6.1

>  <ChemblID>  (82) 
CHEMBL3125050

>  <standardized_canonical_smiles>  (82) 
N=C(Nc1cccc(-c2cccc(NC(=N)c3cccs3)c2)c1)c1cccs1

$$$$
4CAQ_M68_B_800
     RDKit          3D

 23 25  0  0  0  0  0  0  0  0999 V2000
   22.9270    7.7140   53.8520 Cl  0  0  0  0  0  0  0  0  0  0  0  0
   21.1660    7.7980   54.1950 C   0  0  0  0  0  0  0  0  0  0  0  0
   20.4360    8.9640   53.9200 C   0  0  0  0  0  0  0  0  0  0  0  0
   19.0680    9.0040   54.1960 C   0  0  0  0  0  0  0  0  0  0  0  0
   18.4500    7.8770   54.7470 C   0  0  0  0  0  0  0  0  0  0  0  0
   20.5440    6.6760   54.7450 C   0  0  0  0  0  0  0  0  0  0  0  0
   19.1820    6.7140   55.0240 C   0  0  0  0  0  0  0  0  0  0  0  0
   18.5240    5.4880   55.6170 C   0  0  0  0  0  0  0  0  0  0  0  0
   18.0930    5.7670   57.0600 C   0  0  0  0  0  0  0  0  0  0  0  0
   17.5260    4.5750   57.6660 N   0  0  0  0  0  0  0  0  0  0  0  0
   16.2560    4.6470   58.3550 C   0  0  0  0  0  0  0  0  0  0  0  0
   15.1210    4.1740   57.4650 C   0  0  0  0  0  0  0  0  0  0  0  0
   13.9420    3.5570   58.2000 C   0  0  0  0  0  0  0  0  0  0  0  0
   13.0490    4.3120   58.9580 C   0  0  0  0  0  0  0  0  0  0  0  0
   11.9770    3.7000   59.6080 C   0  0  0  0  0  0  0  0  0  0  0  0
   13.7480    2.1910   58.0820 C   0  0  0  0  0  0  0  0  0  0  0  0
   12.6840    1.5590   58.7070 C   0  0  0  0  0  0  0  0  0  0  0  0
   12.5150    0.2110   58.5630 N   0  0  0  0  0  0  0  0  0  0  0  0
   11.7920    2.3180   59.4740 C   0  0  0  0  0  0  0  0  0  0  0  0
   10.7440    1.6710   60.0960 C   0  0  0  0  0  0  0  0  0  0  0  0
   10.6000    0.2810   59.9490 C   0  0  0  0  0  0  0  0  0  0  0  0
   11.4810   -0.4400   59.1520 C   0  0  0  0  0  0  0  0  0  0  0  0
   11.3300   -1.7730   58.9860 N   0  0  0  0  0  0  0  0  0  0  0  0
  2  1  1  0
  3  2  2  0
  6  2  1  0
  4  3  1  0
  5  4  2  0
  7  5  1  0
  7  6  2  0
  8  7  1  0
  9  8  1  0
 10  9  1  0
 11 10  1  0
 12 11  1  0
 13 12  1  0
 14 13  2  0
 16 13  1  0
 15 14  1  0
 19 15  2  0
 17 16  2  0
 18 17  1  0
 19 17  1  0
 22 18  2  0
 20 19  1  0
 21 20  2  0
 22 21  1  0
 23 22  1  0
A    1
CL
A    2
C23
A    3
C24
A    4
C25
A    5
C26
A    6
C22
A    7
C21
A    8
C15
A    9
C14
A   10
N13
A   11
C12
A   12
C11
A   13
C08
A   14
C07
A   15
C06
A   16
C09
A   17
C10
A   18
N01
A   19
C05
A   20
C04
A   21
C03
A   22
C02
A   23
N02
M  END
>  <Id>  (83) 
4CAQ_M68_B_800

>  <ChainId>  (83) 
B

>  <AsymId>  (83) 
J

>  <SeqNum>  (83) 
800

>  <Name>  (83) 
7-[2-[2-(3-chlorophenyl)ethylamino]ethyl]quinolin-2-amine

>  <SystematicName>  (83) 
7-[2-[2-(3-chlorophenyl)ethylamino]ethyl]quinolin-2-amine

>  <Synonyms>  (83) 


>  <Type>  (83) 
non-polymer

>  <Formula>  (83) 
C19 H20 Cl N3

>  <ObservedFormula>  (83) 
C19 Cl N3

>  <MolecularWeight>  (83) 
325.835

>  <ModifiedDate>  (83) 
2014-09-05

>  <Parent>  (83) 


>  <OneLetterCode>  (83) 


>  <SubcomponentList>  (83) 


>  <AmbiguousFlag>  (83) 
N

>  <InsertionCode>  (83) 


>  <InstanceId>  (83) 
4CAQ_M68_B_800

>  <ChemCompId>  (83) 
M68

>  <PdbId>  (83) 
4CAQ

>  <ResidueNumber>  (83) 
800

>  <InChI>  (83) 
InChI=1S/C19H20ClN3/c20-17-3-1-2-14(12-17)8-10-22-11-9-15-4-5-16-6-7-19(21)23-18(16)13-15/h1-7,12-13,22H,8-11H2,(H2,21,23)

>  <InChIKey>  (83) 
LTZZOZXCYRCKFV-UHFFFAOYSA-N

>  <SMILES>  (83) 
c1cc(cc(c1)Cl)CCNCCc2ccc3ccc(nc3c2)N

>  <MissingHeavyAtoms>  (83) 
0

>  <Model>  (83) 
1

>  <AltIds>  (83) 


>  <pKI>  (83) 
7.18

>  <ChemblID>  (83) 
CHEMBL3216851

>  <standardized_canonical_smiles>  (83) 
Nc1ccc2ccc(CCNCCc3cccc(Cl)c3)cc2n1

$$$$
4CAP_ML6_B_800
     RDKit          3D

 23 25  0  0  0  0  0  0  0  0999 V2000
   14.4620    3.0520   58.1950 C   0  0  0  0  0  0  0  0  0  0  0  0
   18.0000   10.1770   53.4590 F   0  0  0  0  0  0  0  0  0  0  0  0
   15.8480    3.3660   57.6890 C   0  0  0  0  0  0  0  0  0  0  0  0
   11.9820    2.2800   59.2190 C   0  0  0  0  0  0  0  0  0  0  0  0
   19.4240    6.1060   55.7250 C   0  0  0  0  0  0  0  0  0  0  0  0
   18.9960    9.3050   53.7270 C   0  0  0  0  0  0  0  0  0  0  0  0
   17.5760    4.7810   56.8150 C   0  0  0  0  0  0  0  0  0  0  0  0
   17.9020    5.9690   55.9000 C   0  0  0  0  0  0  0  0  0  0  0  0
   20.2760    9.4880   53.1930 C   0  0  0  0  0  0  0  0  0  0  0  0
   11.2950   -0.4660   59.1300 C   0  0  0  0  0  0  0  0  0  0  0  0
   10.4330    0.4750   59.7080 C   0  0  0  0  0  0  0  0  0  0  0  0
   21.2810    8.5570   53.4660 C   0  0  0  0  0  0  0  0  0  0  0  0
   18.7280    8.2100   54.5470 C   0  0  0  0  0  0  0  0  0  0  0  0
   14.1190    1.6930   58.1950 C   0  0  0  0  0  0  0  0  0  0  0  0
   16.1350    4.6170   57.0720 N   0  0  0  0  0  0  0  0  0  0  0  0
   19.7320    7.2910   54.8240 C   0  0  0  0  0  0  0  0  0  0  0  0
   12.4760   -0.0170   58.6230 N   0  0  0  0  0  0  0  0  0  0  0  0
   12.3550    3.6440   59.2470 C   0  0  0  0  0  0  0  0  0  0  0  0
   10.9680   -1.7790   59.0160 N   0  0  0  0  0  0  0  0  0  0  0  0
   12.8490    1.3090   58.6830 C   0  0  0  0  0  0  0  0  0  0  0  0
   13.5890    4.0130   58.7210 C   0  0  0  0  0  0  0  0  0  0  0  0
   21.0080    7.4560   54.2810 C   0  0  0  0  0  0  0  0  0  0  0  0
   10.7620    1.8420   59.7460 C   0  0  0  0  0  0  0  0  0  0  0  0
  9  6  2  0
 10 11  2  0
 11 23  1  0
  1 21  1  0
 16  5  1  0
  4 23  2  0
 17 10  1  0
 17 20  2  0
  3  1  1  0
 20  4  1  0
 21 18  2  0
  6 13  1  0
  4 18  1  0
 13 16  2  0
  2  6  1  0
 12 22  2  0
 19 10  1  0
 15  3  1  0
  7 15  1  0
 14 20  1  0
  5  8  1  0
 14  1  2  0
  8  7  1  0
  9 12  1  0
 22 16  1  0
A    1
C08
A    2
F25
A    3
C11
A    4
C05
A    5
C15
A    6
C25
A    7
C13
A    8
C14
A    9
C24
A   10
C02
A   11
C03
A   12
C23
A   13
C26
A   14
C09
A   15
N12
A   16
C21
A   17
N01
A   18
C06
A   19
N02
A   20
C10
A   21
C07
A   22
C22
A   23
C04
M  END
>  <InstanceId>  (84) 
4CAP_ML6_B_800

>  <ChemCompId>  (84) 
ML6

>  <PdbId>  (84) 
4CAP

>  <ChainId>  (84) 
B

>  <ResidueNumber>  (84) 
800

>  <InsertionCode>  (84) 


>  <Model>  (84) 
1

>  <AltIds>  (84) 


>  <MissingHeavyAtoms>  (84) 
0

>  <ObservedFormula>  (84) 
C19 N3 F

>  <AsymId>  (84) 
J

>  <SeqNum>  (84) 
800

>  <Name>  (84) 
7-({[3-(3-fluorophenyl)propyl]amino}methyl)quinolin-2-amine

>  <SystematicName>  (84) 
7-[[3-(3-fluorophenyl)propylamino]methyl]quinolin-2-amine

>  <Synonyms>  (84) 


>  <Type>  (84) 
NON-POLYMER

>  <Formula>  (84) 
C19 H20 F N3

>  <MolecularWeight>  (84) 
309.381

>  <ModifiedDate>  (84) 
2014-02-14

>  <Parent>  (84) 


>  <OneLetterCode>  (84) 


>  <SubcomponentList>  (84) 


>  <AmbiguousFlag>  (84) 
N

>  <InChI>  (84) 
null

>  <InChIKey>  (84) 
null

>  <SMILES>  (84) 
c1cc(cc(c1)F)CCCNCc2ccc3ccc(nc3c2)N

>  <pKI>  (84) 
7.22

>  <ChemblID>  (84) 
CHEMBL3216173

>  <standardized_canonical_smiles>  (84) 
Nc1ccc2ccc(CNCCCc3cccc(F)c3)cc2n1

$$$$
4CAO_M46_B_800
     RDKit          3D

 24 26  0  0  0  0  0  0  0  0999 V2000
   22.9520    7.1850   53.8170 F   0  0  0  0  0  0  0  0  0  0  0  0
   21.7530    7.7980   53.9740 C   0  0  0  0  0  0  0  0  0  0  0  0
   20.7100    7.1020   54.5750 C   0  0  0  0  0  0  0  0  0  0  0  0
   21.5590    9.1150   53.5260 C   0  0  0  0  0  0  0  0  0  0  0  0
   20.3310    9.7440   53.6900 C   0  0  0  0  0  0  0  0  0  0  0  0
   19.2980    9.0390   54.2960 C   0  0  0  0  0  0  0  0  0  0  0  0
   19.4810    7.7210   54.7360 C   0  0  0  0  0  0  0  0  0  0  0  0
   18.3670    6.9410   55.4180 C   0  0  0  0  0  0  0  0  0  0  0  0
   18.7340    6.8880   56.8980 C   0  0  0  0  0  0  0  0  0  0  0  0
   17.6390    6.3820   57.8320 C   0  0  0  0  0  0  0  0  0  0  0  0
   17.0330    5.1320   57.3890 N   0  0  0  0  0  0  0  0  0  0  0  0
   16.0010    4.5480   58.2180 C   0  0  0  0  0  0  0  0  0  0  0  0
   14.8330    4.0850   57.3990 C   0  0  0  0  0  0  0  0  0  0  0  0
   13.7150    3.4570   58.1900 C   0  0  0  0  0  0  0  0  0  0  0  0
   12.8860    4.1660   59.0610 C   0  0  0  0  0  0  0  0  0  0  0  0
   11.8850    3.4880   59.7660 C   0  0  0  0  0  0  0  0  0  0  0  0
   13.5100    2.0920   58.0570 C   0  0  0  0  0  0  0  0  0  0  0  0
   12.4970    1.4130   58.7530 C   0  0  0  0  0  0  0  0  0  0  0  0
   12.3140    0.0650   58.5860 N   0  0  0  0  0  0  0  0  0  0  0  0
   11.6690    2.1250   59.6080 C   0  0  0  0  0  0  0  0  0  0  0  0
   10.6820    1.4490   60.3200 C   0  0  0  0  0  0  0  0  0  0  0  0
   10.5180    0.0830   60.1300 C   0  0  0  0  0  0  0  0  0  0  0  0
   11.3470   -0.6070   59.2460 C   0  0  0  0  0  0  0  0  0  0  0  0
   11.1870   -1.9420   59.0550 N   0  0  0  0  0  0  0  0  0  0  0  0
  2  1  1  0
  3  2  2  0
  4  2  1  0
  7  3  1  0
  5  4  2  0
  6  5  1  0
  7  6  2  0
  8  7  1  0
  9  8  1  0
 10  9  1  0
 11 10  1  0
 12 11  1  0
 13 12  1  0
 14 13  1  0
 15 14  2  0
 17 14  1  0
 16 15  1  0
 20 16  2  0
 18 17  2  0
 19 18  1  0
 20 18  1  0
 23 19  2  0
 21 20  1  0
 22 21  2  0
 23 22  1  0
 24 23  1  0
A    1
F23
A    2
C23
A    3
C22
A    4
C24
A    5
C25
A    6
C26
A    7
C21
A    8
C16
A    9
C15
A   10
C14
A   11
N13
A   12
C12
A   13
C11
A   14
C08
A   15
C07
A   16
C06
A   17
C09
A   18
C10
A   19
N01
A   20
C05
A   21
C04
A   22
C03
A   23
C02
A   24
N02
M  END
>  <Id>  (85) 
4CAO_M46_B_800

>  <ChainId>  (85) 
B

>  <AsymId>  (85) 
J

>  <SeqNum>  (85) 
800

>  <Name>  (85) 
7-[2-[3-(3-fluorophenyl)propylamino]ethyl]quinolin-2-amine

>  <SystematicName>  (85) 
7-[2-[3-(3-fluorophenyl)propylamino]ethyl]quinolin-2-amine

>  <Synonyms>  (85) 


>  <Type>  (85) 
non-polymer

>  <Formula>  (85) 
C20 H22 F N3

>  <ObservedFormula>  (85) 
C20 F N3

>  <MolecularWeight>  (85) 
323.407

>  <ModifiedDate>  (85) 
2014-09-05

>  <Parent>  (85) 


>  <OneLetterCode>  (85) 


>  <SubcomponentList>  (85) 


>  <AmbiguousFlag>  (85) 
N

>  <InsertionCode>  (85) 


>  <InstanceId>  (85) 
4CAO_M46_B_800

>  <ChemCompId>  (85) 
M46

>  <PdbId>  (85) 
4CAO

>  <ResidueNumber>  (85) 
800

>  <InChI>  (85) 
InChI=1S/C20H22FN3/c21-18-5-1-3-15(13-18)4-2-11-23-12-10-16-6-7-17-8-9-20(22)24-19(17)14-16/h1,3,5-9,13-14,23H,2,4,10-12H2,(H2,22,24)

>  <InChIKey>  (85) 
ZCQVAHWJMSLTRU-UHFFFAOYSA-N

>  <SMILES>  (85) 
c1cc(cc(c1)F)CCCNCCc2ccc3ccc(nc3c2)N

>  <MissingHeavyAtoms>  (85) 
0

>  <Model>  (85) 
1

>  <AltIds>  (85) 


>  <pKI>  (85) 
6.79

>  <ChemblID>  (85) 
CHEMBL3216378

>  <standardized_canonical_smiles>  (85) 
Nc1ccc2ccc(CCNCCCc3cccc(F)c3)cc2n1

$$$$
4CDT_M48_B_801
     RDKit          3D

 23 25  0  0  0  0  0  0  0  0999 V2000
   23.2100    7.4660   53.9390 F   0  0  0  0  0  0  0  0  0  0  0  0
   19.6500    8.4100   53.9290 C   0  0  0  0  0  0  0  0  0  0  0  0
   21.0330    8.4640   53.6940 C   0  0  0  0  0  0  0  0  0  0  0  0
   21.8720    7.4300   54.1530 C   0  0  0  0  0  0  0  0  0  0  0  0
   21.3140    6.3470   54.8660 C   0  0  0  0  0  0  0  0  0  0  0  0
   19.1040    7.3220   54.6310 C   0  0  0  0  0  0  0  0  0  0  0  0
   19.9300    6.2830   55.1170 C   0  0  0  0  0  0  0  0  0  0  0  0
   19.3830    5.0880   55.8900 C   0  0  0  0  0  0  0  0  0  0  0  0
   18.3030    5.4540   56.9150 C   0  0  0  0  0  0  0  0  0  0  0  0
   17.5390    4.2640   57.2660 N   0  0  0  0  0  0  0  0  0  0  0  0
   16.4870    4.2810   58.2790 C   0  0  0  0  0  0  0  0  0  0  0  0
   15.0970    4.3820   57.6620 C   0  0  0  0  0  0  0  0  0  0  0  0
   14.0410    3.5570   58.3330 C   0  0  0  0  0  0  0  0  0  0  0  0
   13.1710    4.2090   59.1920 C   0  0  0  0  0  0  0  0  0  0  0  0
   12.1780    3.5370   59.8820 C   0  0  0  0  0  0  0  0  0  0  0  0
   13.9020    2.1750   58.1430 C   0  0  0  0  0  0  0  0  0  0  0  0
   12.8880    1.4830   58.8320 C   0  0  0  0  0  0  0  0  0  0  0  0
   12.7220    0.1380   58.6590 N   0  0  0  0  0  0  0  0  0  0  0  0
   12.0270    2.1730   59.6970 C   0  0  0  0  0  0  0  0  0  0  0  0
   11.0210    1.5140   60.3930 C   0  0  0  0  0  0  0  0  0  0  0  0
   10.9050    0.1240   60.1700 C   0  0  0  0  0  0  0  0  0  0  0  0
   11.7510   -0.5440   59.2960 C   0  0  0  0  0  0  0  0  0  0  0  0
   11.6070   -1.8740   59.1060 N   0  0  0  0  0  0  0  0  0  0  0  0
  4  1  1  0
  3  2  2  0
  6  2  1  0
  4  3  1  0
  5  4  2  0
  7  5  1  0
  7  6  2  0
  8  7  1  0
  9  8  1  0
 10  9  1  0
 11 10  1  0
 12 11  1  0
 13 12  1  0
 14 13  2  0
 16 13  1  0
 15 14  1  0
 19 15  2  0
 17 16  2  0
 18 17  1  0
 19 17  1  0
 22 18  2  0
 20 19  1  0
 21 20  2  0
 22 21  1  0
 23 22  1  0
A    1
F23
A    2
C25
A    3
C24
A    4
C23
A    5
C22
A    6
C26
A    7
C21
A    8
C15
A    9
C14
A   10
N13
A   11
C12
A   12
C11
A   13
C08
A   14
C07
A   15
C06
A   16
C09
A   17
C10
A   18
N01
A   19
C05
A   20
C04
A   21
C03
A   22
C02
A   23
N02
M  END
>  <Id>  (86) 
4CDT_M48_B_801

>  <ChainId>  (86) 
B

>  <AsymId>  (86) 
J

>  <SeqNum>  (86) 
801

>  <Name>  (86) 
7-[2-[2-(3-fluorophenyl)ethylamino]ethyl]quinolin-2-amine

>  <SystematicName>  (86) 
7-[2-[2-(3-fluorophenyl)ethylamino]ethyl]quinolin-2-amine

>  <Synonyms>  (86) 


>  <Type>  (86) 
non-polymer

>  <Formula>  (86) 
C19 H20 F N3

>  <ObservedFormula>  (86) 
C19 F N3

>  <MolecularWeight>  (86) 
309.381

>  <ModifiedDate>  (86) 
2014-09-05

>  <Parent>  (86) 


>  <OneLetterCode>  (86) 


>  <SubcomponentList>  (86) 


>  <AmbiguousFlag>  (86) 
N

>  <InsertionCode>  (86) 


>  <InstanceId>  (86) 
4CDT_M48_B_801

>  <ChemCompId>  (86) 
M48

>  <PdbId>  (86) 
4CDT

>  <ResidueNumber>  (86) 
801

>  <InChI>  (86) 
InChI=1S/C19H20FN3/c20-17-3-1-2-14(12-17)8-10-22-11-9-15-4-5-16-6-7-19(21)23-18(16)13-15/h1-7,12-13,22H,8-11H2,(H2,21,23)

>  <InChIKey>  (86) 
UAVGQDSBRIPETE-UHFFFAOYSA-N

>  <SMILES>  (86) 
c1cc(cc(c1)F)CCNCCc2ccc3ccc(nc3c2)N

>  <MissingHeavyAtoms>  (86) 
0

>  <Model>  (86) 
1

>  <AltIds>  (86) 


>  <pKI>  (86) 
7.31

>  <ChemblID>  (86) 
CHEMBL3217277

>  <standardized_canonical_smiles>  (86) 
Nc1ccc2ccc(CCNCCc3cccc(F)c3)cc2n1

$$$$
4CAN_M7K_B_800
     RDKit          3D

 22 24  0  0  0  0  0  0  0  0999 V2000
   12.3650    0.1930   58.2550 N   0  0  0  0  0  0  0  0  0  0  0  0
   11.3810   -0.4880   58.8950 C   0  0  0  0  0  0  0  0  0  0  0  0
   11.2190   -1.8190   58.6970 N   0  0  0  0  0  0  0  0  0  0  0  0
   10.5910    0.2030   59.8110 C   0  0  0  0  0  0  0  0  0  0  0  0
   10.7520    1.5760   59.9990 C   0  0  0  0  0  0  0  0  0  0  0  0
   11.7380    2.2570   59.2940 C   0  0  0  0  0  0  0  0  0  0  0  0
   11.9520    3.6260   59.4660 C   0  0  0  0  0  0  0  0  0  0  0  0
   12.9530    4.2880   58.7570 C   0  0  0  0  0  0  0  0  0  0  0  0
   13.7640    3.5740   57.8810 C   0  0  0  0  0  0  0  0  0  0  0  0
   13.5510    2.2110   57.7160 C   0  0  0  0  0  0  0  0  0  0  0  0
   12.5530    1.5380   58.4210 C   0  0  0  0  0  0  0  0  0  0  0  0
   14.8640    4.2480   57.0940 C   0  0  0  0  0  0  0  0  0  0  0  0
   16.2280    4.1300   57.7470 C   0  0  0  0  0  0  0  0  0  0  0  0
   17.2310    4.5540   56.7810 N   0  0  0  0  0  0  0  0  0  0  0  0
   18.6600    4.4010   57.0110 C   0  0  0  0  0  0  0  0  0  0  0  0
   19.4270    5.1320   55.9140 C   0  0  0  0  0  0  0  0  0  0  0  0
   19.0190    6.4070   55.4760 C   0  0  0  0  0  0  0  0  0  0  0  0
   19.7310    7.0740   54.4670 C   0  0  0  0  0  0  0  0  0  0  0  0
   20.8530    6.4680   53.8870 C   0  0  0  0  0  0  0  0  0  0  0  0
   21.2610    5.2020   54.3160 C   0  0  0  0  0  0  0  0  0  0  0  0
   20.5530    4.5370   55.3250 C   0  0  0  0  0  0  0  0  0  0  0  0
   19.3390    8.2960   54.0550 F   0  0  0  0  0  0  0  0  0  0  0  0
  2  1  2  0
 11  1  1  0
  3  2  1  0
  4  2  1  0
  5  4  2  0
  6  5  1  0
  7  6  1  0
 11  6  2  0
  8  7  2  0
  9  8  1  0
 10  9  2  0
 12  9  1  0
 11 10  1  0
 13 12  1  0
 14 13  1  0
 15 14  1  0
 16 15  1  0
 17 16  2  0
 21 16  1  0
 18 17  1  0
 19 18  2  0
 22 18  1  0
 20 19  1  0
 21 20  2  0
A    1
N01
A    2
C02
A    3
N02
A    4
C03
A    5
C04
A    6
C05
A    7
C06
A    8
C07
A    9
C08
A   10
C09
A   11
C10
A   12
C11
A   13
C12
A   14
N13
A   15
C14
A   16
C21
A   17
C22
A   18
C23
A   19
C24
A   20
C25
A   21
C26
A   22
F27
M  END
>  <Id>  (87) 
4CAN_M7K_B_800

>  <ChainId>  (87) 
B

>  <AsymId>  (87) 
J

>  <SeqNum>  (87) 
800

>  <Name>  (87) 
7-{2-[(3-fluorobenzyl)amino]ethyl}quinolin-2-amine

>  <SystematicName>  (87) 
7-[2-[(3-fluorophenyl)methylamino]ethyl]quinolin-2-amine

>  <Synonyms>  (87) 


>  <Type>  (87) 
NON-POLYMER

>  <Formula>  (87) 
C18 H18 F N3

>  <ObservedFormula>  (87) 
C18 F N3

>  <MolecularWeight>  (87) 
295.354

>  <ModifiedDate>  (87) 
2014-02-14

>  <Parent>  (87) 


>  <OneLetterCode>  (87) 


>  <SubcomponentList>  (87) 


>  <AmbiguousFlag>  (87) 
N

>  <InsertionCode>  (87) 


>  <InstanceId>  (87) 
4CAN_M7K_B_800

>  <ChemCompId>  (87) 
M7K

>  <PdbId>  (87) 
4CAN

>  <ResidueNumber>  (87) 
800

>  <InChI>  (87) 
InChI=1S/C18H18FN3/c19-16-3-1-2-14(10-16)12-21-9-8-13-4-5-15-6-7-18(20)22-17(15)11-13/h1-7,10-11,21H,8-9,12H2,(H2,20,22)

>  <InChIKey>  (87) 
GFTZBOUXJJDHLM-UHFFFAOYSA-N

>  <SMILES>  (87) 
c1cc(cc(c1)F)CNCCc2ccc3ccc(nc3c2)N

>  <MissingHeavyAtoms>  (87) 
0

>  <Model>  (87) 
1

>  <AltIds>  (87) 


>  <pKI>  (87) 
6.6

>  <ChemblID>  (87) 
CHEMBL3216174

>  <standardized_canonical_smiles>  (87) 
Nc1ccc2ccc(CCNCc3cccc(F)c3)cc2n1

$$$$
4CAM_M87_B_800
     RDKit          3D

 22 24  0  0  0  0  0  0  0  0999 V2000
   20.0640    9.9010   54.1010 F   0  0  0  0  0  0  0  0  0  0  0  0
   20.0720    8.5610   54.2520 C   0  0  0  0  0  0  0  0  0  0  0  0
   21.2300    7.7900   54.0270 C   0  0  0  0  0  0  0  0  0  0  0  0
   21.1970    6.4030   54.1900 C   0  0  0  0  0  0  0  0  0  0  0  0
   19.9960    5.7970   54.5820 C   0  0  0  0  0  0  0  0  0  0  0  0
   18.8860    7.9530   54.6440 C   0  0  0  0  0  0  0  0  0  0  0  0
   18.8520    6.5800   54.8150 C   0  0  0  0  0  0  0  0  0  0  0  0
   17.5100    6.0210   55.2170 C   0  0  0  0  0  0  0  0  0  0  0  0
   17.4960    4.9480   56.2730 C   0  0  0  0  0  0  0  0  0  0  0  0
   16.1010    4.7050   56.6280 N   0  0  0  0  0  0  0  0  0  0  0  0
   15.9330    3.6900   57.6100 C   0  0  0  0  0  0  0  0  0  0  0  0
   14.5390    3.3360   58.0820 C   0  0  0  0  0  0  0  0  0  0  0  0
   13.6770    4.2750   58.6450 C   0  0  0  0  0  0  0  0  0  0  0  0
   12.4110    3.8620   59.1310 C   0  0  0  0  0  0  0  0  0  0  0  0
   14.1940    1.9790   58.0570 C   0  0  0  0  0  0  0  0  0  0  0  0
   12.9410    1.5600   58.5180 C   0  0  0  0  0  0  0  0  0  0  0  0
   12.6100    0.2260   58.4400 N   0  0  0  0  0  0  0  0  0  0  0  0
   12.0740    2.4960   59.0770 C   0  0  0  0  0  0  0  0  0  0  0  0
   10.8540    2.0230   59.5840 C   0  0  0  0  0  0  0  0  0  0  0  0
   10.5610    0.6510   59.4960 C   0  0  0  0  0  0  0  0  0  0  0  0
   11.4330   -0.2560   58.9010 C   0  0  0  0  0  0  0  0  0  0  0  0
   11.1440   -1.5780   58.7970 N   0  0  0  0  0  0  0  0  0  0  0  0
  2  1  1  0
  3  2  2  0
  6  2  1  0
  4  3  1  0
  5  4  2  0
  7  5  1  0
  7  6  2  0
  8  7  1  0
  9  8  1  0
 10  9  1  0
 11 10  1  0
 12 11  1  0
 13 12  2  0
 15 12  1  0
 14 13  1  0
 18 14  2  0
 16 15  2  0
 17 16  1  0
 18 16  1  0
 21 17  2  0
 19 18  1  0
 20 19  2  0
 21 20  1  0
 22 21  1  0
A    1
F23
A    2
C23
A    3
C24
A    4
C25
A    5
C26
A    6
C22
A    7
C21
A    8
C14
A    9
C13
A   10
N12
A   11
C11
A   12
C08
A   13
C07
A   14
C06
A   15
C09
A   16
C10
A   17
N01
A   18
C05
A   19
C04
A   20
C03
A   21
C02
A   22
N02
M  END
>  <Id>  (88) 
4CAM_M87_B_800

>  <ChainId>  (88) 
B

>  <AsymId>  (88) 
J

>  <SeqNum>  (88) 
800

>  <Name>  (88) 
7-[[2-(3-fluorophenyl)ethylamino]methyl]quinolin-2-amine

>  <SystematicName>  (88) 
7-[[2-(3-fluorophenyl)ethylamino]methyl]quinolin-2-amine

>  <Synonyms>  (88) 


>  <Type>  (88) 
non-polymer

>  <Formula>  (88) 
C18 H18 F N3

>  <ObservedFormula>  (88) 
C18 F N3

>  <MolecularWeight>  (88) 
295.354

>  <ModifiedDate>  (88) 
2014-04-28

>  <Parent>  (88) 


>  <OneLetterCode>  (88) 


>  <SubcomponentList>  (88) 


>  <AmbiguousFlag>  (88) 
N

>  <InsertionCode>  (88) 


>  <InstanceId>  (88) 
4CAM_M87_B_800

>  <ChemCompId>  (88) 
M87

>  <PdbId>  (88) 
4CAM

>  <ResidueNumber>  (88) 
800

>  <InChI>  (88) 
InChI=1S/C18H18FN3/c19-16-3-1-2-13(10-16)8-9-21-12-14-4-5-15-6-7-18(20)22-17(15)11-14/h1-7,10-11,21H,8-9,12H2,(H2,20,22)

>  <InChIKey>  (88) 
YXSBPQQVHVXHJN-UHFFFAOYSA-N

>  <SMILES>  (88) 
c1cc(cc(c1)F)CCNCc2ccc3ccc(nc3c2)N

>  <MissingHeavyAtoms>  (88) 
0

>  <Model>  (88) 
1

>  <AltIds>  (88) 


>  <pKI>  (88) 
7.12

>  <ChemblID>  (88) 
CHEMBL3216616

>  <standardized_canonical_smiles>  (88) 
Nc1ccc2ccc(CNCCc3cccc(F)c3)cc2n1

$$$$
3JX3_JI5_B_800
     RDKit          3D

 27 29  0  0  0  0  0  0  0  0999 V2000
   17.8650    2.2760   56.6430 C   0  0  0  0  0  0  0  0  0  0  0  0
   18.5370    3.5550   56.4960 N   0  0  0  0  0  0  0  0  0  0  0  0
   16.8940    2.2460   57.8210 C   0  0  0  0  0  0  0  0  0  0  0  0
   15.5030    2.2820   57.4070 N   0  0  0  0  0  0  0  0  0  0  0  0
   14.5200    1.5210   58.1540 C   0  0  0  0  0  0  0  0  0  0  0  0
   13.0990    2.0690   57.9300 C   0  0  0  0  0  0  0  0  0  0  0  0
   17.5550    3.6730   53.5710 N   0  0  0  0  0  0  0  0  0  0  0  0
   12.1170    1.2350   58.7530 C   0  0  0  0  0  0  0  0  0  0  0  0
   17.3370    8.4370   55.3820 N   0  0  0  0  0  0  0  0  0  0  0  0
   11.5820    1.7470   59.9340 C   0  0  0  0  0  0  0  0  0  0  0  0
   10.6990    0.9910   60.7110 C   0  0  0  0  0  0  0  0  0  0  0  0
   10.1990    1.5180   61.8370 F   0  0  0  0  0  0  0  0  0  0  0  0
   10.3160   -0.2830   60.2990 C   0  0  0  0  0  0  0  0  0  0  0  0
   10.8330   -0.7930   59.0970 C   0  0  0  0  0  0  0  0  0  0  0  0
   11.7390   -0.0490   58.3500 C   0  0  0  0  0  0  0  0  0  0  0  0
   18.7820    3.0530   54.0760 C   0  0  0  0  0  0  0  0  0  0  0  0
   18.5220    7.7640   55.4680 C   0  0  0  0  0  0  0  0  0  0  0  0
   19.1800    3.9690   55.2510 C   0  0  0  0  0  0  0  0  0  0  0  0
   19.7220    8.3820   55.0560 C   0  0  0  0  0  0  0  0  0  0  0  0
   18.6770    5.3550   54.8320 C   0  0  0  0  0  0  0  0  0  0  0  0
   19.6890    9.6960   54.5690 C   0  0  0  0  0  0  0  0  0  0  0  0
   17.3920    5.0530   54.0400 C   0  0  0  0  0  0  0  0  0  0  0  0
   18.4560   10.3680   54.4850 C   0  0  0  0  0  0  0  0  0  0  0  0
   17.2640    9.7140   54.8970 C   0  0  0  0  0  0  0  0  0  0  0  0
   16.0440   10.3240   54.8480 N   0  0  0  0  0  0  0  0  0  0  0  0
   18.4960    6.3430   56.0060 C   0  0  0  0  0  0  0  0  0  0  0  0
   20.9710   10.3750   54.1290 C   0  0  0  0  0  0  0  0  0  0  0  0
  2  1  1  0
  3  1  1  0
 18  2  1  0
  4  3  1  0
  5  4  1  0
  6  5  1  0
  8  6  1  0
 16  7  1  0
 22  7  1  0
 10  8  2  0
 15  8  1  0
 17  9  2  0
 24  9  1  0
 11 10  1  0
 12 11  1  0
 13 11  2  0
 14 13  1  0
 15 14  2  0
 18 16  1  0
 19 17  1  0
 26 17  1  0
 20 18  1  0
 21 19  2  0
 22 20  1  0
 26 20  1  0
 23 21  1  0
 27 21  1  0
 24 23  2  0
 25 24  1  0
A    1
C1
A    2
N1
A    3
C2
A    4
N2
A    5
C3
A    6
C4
A    7
N1'
A    8
C11
A    9
N11
A   10
C12
A   11
C13
A   12
F13
A   13
C14
A   14
C15
A   15
C16
A   16
C2'
A   17
C21
A   18
C3'
A   19
C31
A   20
C4'
A   21
C41
A   22
C5'
A   23
C51
A   24
C61
A   25
N61
A   26
C71
A   27
C81
M  END
>  <Id>  (89) 
3JX3_JI5_B_800

>  <ChainId>  (89) 
B

>  <AsymId>  (89) 
J

>  <SeqNum>  (89) 
800

>  <Name>  (89) 
N-{(3R,4R)-4-[(6-amino-4-methylpyridin-2-yl)methyl]pyrrolidin-3-yl}-N'-[2-(3-fluorophenyl)ethyl]ethane-1,2-diamine

>  <SystematicName>  (89) 
N-[(3R,4R)-4-[(6-azanyl-4-methyl-pyridin-2-yl)methyl]pyrrolidin-3-yl]-N'-[2-(3-fluorophenyl)ethyl]ethane-1,2-diamine

>  <Synonyms>  (89) 
N1-{(3'R,4'R)-4'-[(6"-amino-4"-methylpyridin-2"-yl)methyl]pyrrolidin-3'-yl}-N2-(3'-fluorophenethyl)ethane-1,2-diamine tetrahydrochloride

>  <Type>  (89) 
NON-POLYMER

>  <Formula>  (89) 
C21 H30 F N5

>  <ObservedFormula>  (89) 
C21 F N5

>  <MolecularWeight>  (89) 
371.495

>  <ModifiedDate>  (89) 
2011-06-04

>  <Parent>  (89) 


>  <OneLetterCode>  (89) 


>  <SubcomponentList>  (89) 


>  <AmbiguousFlag>  (89) 
N

>  <InsertionCode>  (89) 


>  <InstanceId>  (89) 
3JX3_JI5_B_800

>  <ChemCompId>  (89) 
JI5

>  <PdbId>  (89) 
3JX3

>  <ResidueNumber>  (89) 
800

>  <InChI>  (89) 
InChI=1S/C21H30FN5/c1-15-9-19(27-21(23)10-15)12-17-13-25-14-20(17)26-8-7-24-6-5-16-3-2-4-18(22)11-16/h2-4,9-11,17,20,24-26H,5-8,12-14H2,1H3,(H2,23,27)/t17-,20+/m1/s1

>  <InChIKey>  (89) 
PUOKPLCASUFBAN-XLIONFOSSA-N

>  <SMILES>  (89) 
Cc1cc(nc(c1)N)C[C@@H]2CNC[C@@H]2NCCNCCc3cccc(c3)F

>  <MissingHeavyAtoms>  (89) 
0

>  <Model>  (89) 
1

>  <AltIds>  (89) 


>  <pKI>  (89) 
7.85

>  <ChemblID>  (89) 
CHEMBL1277951

>  <standardized_canonical_smiles>  (89) 
Cc1cc(N)nc(C[C@@H]2CNC[C@@H]2NCCNCCc2cccc(F)c2)c1

$$$$
3JX6_JI5_B_800
     RDKit          3D

 27 29  0  0  0  0  0  0  0  0999 V2000
   17.7590    2.0630   56.7100 C   0  0  0  0  0  0  0  0  0  0  0  0
   18.5650    3.2680   56.6060 N   0  0  0  0  0  0  0  0  0  0  0  0
   16.8020    2.0770   57.8970 C   0  0  0  0  0  0  0  0  0  0  0  0
   15.4280    2.3660   57.5030 N   0  0  0  0  0  0  0  0  0  0  0  0
   14.3910    1.4580   57.9100 C   0  0  0  0  0  0  0  0  0  0  0  0
   12.9660    1.9720   57.6440 C   0  0  0  0  0  0  0  0  0  0  0  0
   17.5070    3.5900   53.7630 N   0  0  0  0  0  0  0  0  0  0  0  0
   12.0450    1.1320   58.5050 C   0  0  0  0  0  0  0  0  0  0  0  0
   17.4780    8.1510   55.4580 N   0  0  0  0  0  0  0  0  0  0  0  0
   11.5620    1.6730   59.6860 C   0  0  0  0  0  0  0  0  0  0  0  0
   10.7310    0.9060   60.4940 C   0  0  0  0  0  0  0  0  0  0  0  0
   10.2790    1.4550   61.6280 F   0  0  0  0  0  0  0  0  0  0  0  0
   10.3690   -0.3980   60.1360 C   0  0  0  0  0  0  0  0  0  0  0  0
   10.8500   -0.9570   58.9490 C   0  0  0  0  0  0  0  0  0  0  0  0
   11.6970   -0.1810   58.1480 C   0  0  0  0  0  0  0  0  0  0  0  0
   18.6920    2.8540   54.1860 C   0  0  0  0  0  0  0  0  0  0  0  0
   18.6760    7.4960   55.4980 C   0  0  0  0  0  0  0  0  0  0  0  0
   19.2290    3.6700   55.3640 C   0  0  0  0  0  0  0  0  0  0  0  0
   19.8240    8.0800   54.9490 C   0  0  0  0  0  0  0  0  0  0  0  0
   18.8770    5.0990   54.9690 C   0  0  0  0  0  0  0  0  0  0  0  0
   19.7280    9.3420   54.3730 C   0  0  0  0  0  0  0  0  0  0  0  0
   17.5870    4.9920   54.1420 C   0  0  0  0  0  0  0  0  0  0  0  0
   18.4970    9.9910   54.3430 C   0  0  0  0  0  0  0  0  0  0  0  0
   17.3660    9.3740   54.8870 C   0  0  0  0  0  0  0  0  0  0  0  0
   16.1730   10.0050   54.8690 N   0  0  0  0  0  0  0  0  0  0  0  0
   18.7470    6.1110   56.1190 C   0  0  0  0  0  0  0  0  0  0  0  0
   20.9390   10.0030   53.7810 C   0  0  0  0  0  0  0  0  0  0  0  0
  2  1  1  0
  3  1  1  0
 18  2  1  0
  4  3  1  0
  5  4  1  0
  6  5  1  0
  8  6  1  0
 16  7  1  0
 22  7  1  0
 10  8  2  0
 15  8  1  0
 17  9  2  0
 24  9  1  0
 11 10  1  0
 12 11  1  0
 13 11  2  0
 14 13  1  0
 15 14  2  0
 18 16  1  0
 19 17  1  0
 26 17  1  0
 20 18  1  0
 21 19  2  0
 22 20  1  0
 26 20  1  0
 23 21  1  0
 27 21  1  0
 24 23  2  0
 25 24  1  0
A    1
C1
A    2
N1
A    3
C2
A    4
N2
A    5
C3
A    6
C4
A    7
N1'
A    8
C11
A    9
N11
A   10
C12
A   11
C13
A   12
F13
A   13
C14
A   14
C15
A   15
C16
A   16
C2'
A   17
C21
A   18
C3'
A   19
C31
A   20
C4'
A   21
C41
A   22
C5'
A   23
C51
A   24
C61
A   25
N61
A   26
C71
A   27
C81
M  END
>  <Id>  (90) 
3JX6_JI5_B_800

>  <ChainId>  (90) 
B

>  <AsymId>  (90) 
J

>  <SeqNum>  (90) 
800

>  <Name>  (90) 
N-{(3R,4R)-4-[(6-amino-4-methylpyridin-2-yl)methyl]pyrrolidin-3-yl}-N'-[2-(3-fluorophenyl)ethyl]ethane-1,2-diamine

>  <SystematicName>  (90) 
N-[(3R,4R)-4-[(6-azanyl-4-methyl-pyridin-2-yl)methyl]pyrrolidin-3-yl]-N'-[2-(3-fluorophenyl)ethyl]ethane-1,2-diamine

>  <Synonyms>  (90) 
N1-{(3'R,4'R)-4'-[(6"-amino-4"-methylpyridin-2"-yl)methyl]pyrrolidin-3'-yl}-N2-(3'-fluorophenethyl)ethane-1,2-diamine tetrahydrochloride

>  <Type>  (90) 
NON-POLYMER

>  <Formula>  (90) 
C21 H30 F N5

>  <ObservedFormula>  (90) 
C21 F N5

>  <MolecularWeight>  (90) 
371.495

>  <ModifiedDate>  (90) 
2011-06-04

>  <Parent>  (90) 


>  <OneLetterCode>  (90) 


>  <SubcomponentList>  (90) 


>  <AmbiguousFlag>  (90) 
N

>  <InsertionCode>  (90) 


>  <InstanceId>  (90) 
3JX6_JI5_B_800

>  <ChemCompId>  (90) 
JI5

>  <PdbId>  (90) 
3JX6

>  <ResidueNumber>  (90) 
800

>  <InChI>  (90) 
InChI=1S/C21H30FN5/c1-15-9-19(27-21(23)10-15)12-17-13-25-14-20(17)26-8-7-24-6-5-16-3-2-4-18(22)11-16/h2-4,9-11,17,20,24-26H,5-8,12-14H2,1H3,(H2,23,27)/t17-,20+/m1/s1

>  <InChIKey>  (90) 
PUOKPLCASUFBAN-XLIONFOSSA-N

>  <SMILES>  (90) 
Cc1cc(nc(c1)N)C[C@@H]2CNC[C@@H]2NCCNCCc3cccc(c3)F

>  <MissingHeavyAtoms>  (90) 
0

>  <Model>  (90) 
1

>  <AltIds>  (90) 


>  <pKI>  (90) 
7.85

>  <ChemblID>  (90) 
CHEMBL1277951

>  <standardized_canonical_smiles>  (90) 
Cc1cc(N)nc(C[C@@H]2CNC[C@@H]2NCCNCCc2cccc(F)c2)c1

$$$$
3JWT_JI5_B_800
     RDKit          3D

 27 29  0  0  0  0  0  0  0  0999 V2000
   18.1610    2.4260   57.1300 C   0  0  0  0  0  0  0  0  0  0  0  0
   17.9360    3.4330   56.1300 N   0  0  0  0  0  0  0  0  0  0  0  0
   16.9160    1.7430   57.7110 C   0  0  0  0  0  0  0  0  0  0  0  0
   15.5760    2.2630   57.4740 N   0  0  0  0  0  0  0  0  0  0  0  0
   14.5080    1.4380   58.0440 C   0  0  0  0  0  0  0  0  0  0  0  0
   13.0830    1.9690   57.8510 C   0  0  0  0  0  0  0  0  0  0  0  0
   17.5340    3.7180   53.4300 N   0  0  0  0  0  0  0  0  0  0  0  0
   12.1380    1.1120   58.6970 C   0  0  0  0  0  0  0  0  0  0  0  0
   17.3910    8.3410   55.2360 N   0  0  0  0  0  0  0  0  0  0  0  0
   11.6510    1.6310   59.8850 C   0  0  0  0  0  0  0  0  0  0  0  0
   10.8170    0.8880   60.6940 C   0  0  0  0  0  0  0  0  0  0  0  0
   10.3740    1.4560   61.8250 F   0  0  0  0  0  0  0  0  0  0  0  0
   10.4380   -0.4010   60.3230 C   0  0  0  0  0  0  0  0  0  0  0  0
   10.9180   -0.9430   59.1300 C   0  0  0  0  0  0  0  0  0  0  0  0
   11.7690   -0.1870   58.3190 C   0  0  0  0  0  0  0  0  0  0  0  0
   18.7040    3.0120   53.9440 C   0  0  0  0  0  0  0  0  0  0  0  0
   18.5910    7.7090   55.2210 C   0  0  0  0  0  0  0  0  0  0  0  0
   18.9860    3.8200   55.2060 C   0  0  0  0  0  0  0  0  0  0  0  0
   19.7060    8.3370   54.6520 C   0  0  0  0  0  0  0  0  0  0  0  0
   18.7820    5.2430   54.7200 C   0  0  0  0  0  0  0  0  0  0  0  0
   19.5750    9.6170   54.1110 C   0  0  0  0  0  0  0  0  0  0  0  0
   17.4850    5.1020   53.8940 C   0  0  0  0  0  0  0  0  0  0  0  0
   18.3340   10.2570   54.1350 C   0  0  0  0  0  0  0  0  0  0  0  0
   17.2420    9.5890   54.6990 C   0  0  0  0  0  0  0  0  0  0  0  0
   16.0360   10.2080   54.7410 N   0  0  0  0  0  0  0  0  0  0  0  0
   18.7170    6.3200   55.8180 C   0  0  0  0  0  0  0  0  0  0  0  0
   20.7700   10.3080   53.5020 C   0  0  0  0  0  0  0  0  0  0  0  0
  2  1  1  0
  3  1  1  0
 18  2  1  0
  4  3  1  0
  5  4  1  0
  6  5  1  0
  8  6  1  0
 16  7  1  0
 22  7  1  0
 10  8  2  0
 15  8  1  0
 17  9  2  0
 24  9  1  0
 11 10  1  0
 12 11  1  0
 13 11  2  0
 14 13  1  0
 15 14  2  0
 18 16  1  0
 19 17  1  0
 26 17  1  0
 20 18  1  0
 21 19  2  0
 22 20  1  0
 26 20  1  0
 23 21  1  0
 27 21  1  0
 24 23  2  0
 25 24  1  0
A    1
C1
A    2
N1
A    3
C2
A    4
N2
A    5
C3
A    6
C4
A    7
N1'
A    8
C11
A    9
N11
A   10
C12
A   11
C13
A   12
F13
A   13
C14
A   14
C15
A   15
C16
A   16
C2'
A   17
C21
A   18
C3'
A   19
C31
A   20
C4'
A   21
C41
A   22
C5'
A   23
C51
A   24
C61
A   25
N61
A   26
C71
A   27
C81
M  END
>  <Id>  (91) 
3JWT_JI5_B_800

>  <ChainId>  (91) 
B

>  <AsymId>  (91) 
J

>  <SeqNum>  (91) 
800

>  <Name>  (91) 
N-{(3R,4R)-4-[(6-amino-4-methylpyridin-2-yl)methyl]pyrrolidin-3-yl}-N'-[2-(3-fluorophenyl)ethyl]ethane-1,2-diamine

>  <SystematicName>  (91) 
N-[(3R,4R)-4-[(6-azanyl-4-methyl-pyridin-2-yl)methyl]pyrrolidin-3-yl]-N'-[2-(3-fluorophenyl)ethyl]ethane-1,2-diamine

>  <Synonyms>  (91) 
N1-{(3'R,4'R)-4'-[(6"-amino-4"-methylpyridin-2"-yl)methyl]pyrrolidin-3'-yl}-N2-(3'-fluorophenethyl)ethane-1,2-diamine tetrahydrochloride

>  <Type>  (91) 
NON-POLYMER

>  <Formula>  (91) 
C21 H30 F N5

>  <ObservedFormula>  (91) 
C21 F N5

>  <MolecularWeight>  (91) 
371.495

>  <ModifiedDate>  (91) 
2011-06-04

>  <Parent>  (91) 


>  <OneLetterCode>  (91) 


>  <SubcomponentList>  (91) 


>  <AmbiguousFlag>  (91) 
N

>  <InsertionCode>  (91) 


>  <InstanceId>  (91) 
3JWT_JI5_B_800

>  <ChemCompId>  (91) 
JI5

>  <PdbId>  (91) 
3JWT

>  <ResidueNumber>  (91) 
800

>  <InChI>  (91) 
InChI=1S/C21H30FN5/c1-15-9-19(27-21(23)10-15)12-17-13-25-14-20(17)26-8-7-24-6-5-16-3-2-4-18(22)11-16/h2-4,9-11,17,20,24-26H,5-8,12-14H2,1H3,(H2,23,27)/t17-,20+/m1/s1

>  <InChIKey>  (91) 
PUOKPLCASUFBAN-XLIONFOSSA-N

>  <SMILES>  (91) 
Cc1cc(nc(c1)N)C[C@@H]2CNC[C@@H]2NCCNCCc3cccc(c3)F

>  <MissingHeavyAtoms>  (91) 
0

>  <Model>  (91) 
1

>  <AltIds>  (91) 


>  <pKI>  (91) 
7.85

>  <ChemblID>  (91) 
CHEMBL1277951

>  <standardized_canonical_smiles>  (91) 
Cc1cc(N)nc(C[C@@H]2CNC[C@@H]2NCCNCCc2cccc(F)c2)c1

$$$$
3JX1_JI5_B_800
     RDKit          3D

 27 29  0  0  0  0  0  0  0  0999 V2000
   17.7560    2.2050   56.7770 C   0  0  0  0  0  0  0  0  0  0  0  0
   17.9450    3.5600   56.3370 N   0  0  0  0  0  0  0  0  0  0  0  0
   16.7420    2.1870   57.9250 C   0  0  0  0  0  0  0  0  0  0  0  0
   15.3650    2.3080   57.4600 N   0  0  0  0  0  0  0  0  0  0  0  0
   14.3190    1.6910   58.2460 C   0  0  0  0  0  0  0  0  0  0  0  0
   12.8870    2.1780   57.9220 C   0  0  0  0  0  0  0  0  0  0  0  0
   17.2530    3.8240   53.5350 N   0  0  0  0  0  0  0  0  0  0  0  0
   11.9480    1.3370   58.7900 C   0  0  0  0  0  0  0  0  0  0  0  0
   17.2160    8.4880   55.3290 N   0  0  0  0  0  0  0  0  0  0  0  0
   11.4730    1.8490   59.9850 C   0  0  0  0  0  0  0  0  0  0  0  0
   10.6400    1.0830   60.8060 C   0  0  0  0  0  0  0  0  0  0  0  0
   10.1980    1.6260   61.9450 F   0  0  0  0  0  0  0  0  0  0  0  0
   10.2590   -0.2040   60.4330 C   0  0  0  0  0  0  0  0  0  0  0  0
   10.7350   -0.7250   59.2200 C   0  0  0  0  0  0  0  0  0  0  0  0
   11.5730    0.0380   58.4150 C   0  0  0  0  0  0  0  0  0  0  0  0
   18.4120    3.0990   54.0370 C   0  0  0  0  0  0  0  0  0  0  0  0
   18.3970    7.8130   55.2780 C   0  0  0  0  0  0  0  0  0  0  0  0
   18.8340    3.9320   55.2540 C   0  0  0  0  0  0  0  0  0  0  0  0
   19.5080    8.4010   54.6700 C   0  0  0  0  0  0  0  0  0  0  0  0
   18.5450    5.3590   54.7940 C   0  0  0  0  0  0  0  0  0  0  0  0
   19.3790    9.6860   54.1140 C   0  0  0  0  0  0  0  0  0  0  0  0
   17.2570    5.2150   53.9630 C   0  0  0  0  0  0  0  0  0  0  0  0
   18.1490   10.3600   54.1850 C   0  0  0  0  0  0  0  0  0  0  0  0
   17.0570    9.7300   54.8040 C   0  0  0  0  0  0  0  0  0  0  0  0
   15.8430   10.3470   54.8960 N   0  0  0  0  0  0  0  0  0  0  0  0
   18.4560    6.4270   55.8900 C   0  0  0  0  0  0  0  0  0  0  0  0
   20.5620   10.3610   53.4570 C   0  0  0  0  0  0  0  0  0  0  0  0
  2  1  1  0
  3  1  1  0
 18  2  1  0
  4  3  1  0
  5  4  1  0
  6  5  1  0
  8  6  1  0
 16  7  1  0
 22  7  1  0
 10  8  2  0
 15  8  1  0
 17  9  2  0
 24  9  1  0
 11 10  1  0
 12 11  1  0
 13 11  2  0
 14 13  1  0
 15 14  2  0
 18 16  1  0
 19 17  1  0
 26 17  1  0
 20 18  1  0
 21 19  2  0
 22 20  1  0
 26 20  1  0
 23 21  1  0
 27 21  1  0
 24 23  2  0
 25 24  1  0
A    1
C1
A    2
N1
A    3
C2
A    4
N2
A    5
C3
A    6
C4
A    7
N1'
A    8
C11
A    9
N11
A   10
C12
A   11
C13
A   12
F13
A   13
C14
A   14
C15
A   15
C16
A   16
C2'
A   17
C21
A   18
C3'
A   19
C31
A   20
C4'
A   21
C41
A   22
C5'
A   23
C51
A   24
C61
A   25
N61
A   26
C71
A   27
C81
M  END
>  <Id>  (92) 
3JX1_JI5_B_800

>  <ChainId>  (92) 
B

>  <AsymId>  (92) 
J

>  <SeqNum>  (92) 
800

>  <Name>  (92) 
N-{(3R,4R)-4-[(6-amino-4-methylpyridin-2-yl)methyl]pyrrolidin-3-yl}-N'-[2-(3-fluorophenyl)ethyl]ethane-1,2-diamine

>  <SystematicName>  (92) 
N-[(3R,4R)-4-[(6-azanyl-4-methyl-pyridin-2-yl)methyl]pyrrolidin-3-yl]-N'-[2-(3-fluorophenyl)ethyl]ethane-1,2-diamine

>  <Synonyms>  (92) 
N1-{(3'R,4'R)-4'-[(6"-amino-4"-methylpyridin-2"-yl)methyl]pyrrolidin-3'-yl}-N2-(3'-fluorophenethyl)ethane-1,2-diamine tetrahydrochloride

>  <Type>  (92) 
NON-POLYMER

>  <Formula>  (92) 
C21 H30 F N5

>  <ObservedFormula>  (92) 
C21 F N5

>  <MolecularWeight>  (92) 
371.495

>  <ModifiedDate>  (92) 
2011-06-04

>  <Parent>  (92) 


>  <OneLetterCode>  (92) 


>  <SubcomponentList>  (92) 


>  <AmbiguousFlag>  (92) 
N

>  <InsertionCode>  (92) 


>  <InstanceId>  (92) 
3JX1_JI5_B_800

>  <ChemCompId>  (92) 
JI5

>  <PdbId>  (92) 
3JX1

>  <ResidueNumber>  (92) 
800

>  <InChI>  (92) 
InChI=1S/C21H30FN5/c1-15-9-19(27-21(23)10-15)12-17-13-25-14-20(17)26-8-7-24-6-5-16-3-2-4-18(22)11-16/h2-4,9-11,17,20,24-26H,5-8,12-14H2,1H3,(H2,23,27)/t17-,20+/m1/s1

>  <InChIKey>  (92) 
PUOKPLCASUFBAN-XLIONFOSSA-N

>  <SMILES>  (92) 
Cc1cc(nc(c1)N)C[C@@H]2CNC[C@@H]2NCCNCCc3cccc(c3)F

>  <MissingHeavyAtoms>  (92) 
0

>  <Model>  (92) 
1

>  <AltIds>  (92) 


>  <pKI>  (92) 
7.85

>  <ChemblID>  (92) 
CHEMBL1277951

>  <standardized_canonical_smiles>  (92) 
Cc1cc(N)nc(C[C@@H]2CNC[C@@H]2NCCNCCc2cccc(F)c2)c1

$$$$
4CTP_2IK_B_800
     RDKit          3D

 27 29  0  0  0  0  0  0  0  0999 V2000
   16.1630    3.8370   56.8730 C   0  0  0  0  0  0  0  0  0  0  0  0
   17.4420    4.1180   56.3370 C   0  0  0  0  0  0  0  0  0  0  0  0
   18.5690    3.3930   56.7560 C   0  0  0  0  0  0  0  0  0  0  0  0
   18.4200    2.3930   57.7040 C   0  0  0  0  0  0  0  0  0  0  0  0
   17.1510    2.1070   58.2310 C   0  0  0  0  0  0  0  0  0  0  0  0
   16.0030    2.8150   57.8080 C   0  0  0  0  0  0  0  0  0  0  0  0
   17.5460    8.0650   55.3360 N   0  0  0  0  0  0  0  0  0  0  0  0
   17.3690    9.3820   55.0260 C   0  0  0  0  0  0  0  0  0  0  0  0
   16.1540    9.9870   55.1870 N   0  0  0  0  0  0  0  0  0  0  0  0
   18.4620   10.1170   54.5490 C   0  0  0  0  0  0  0  0  0  0  0  0
   14.6520    2.4900   58.3870 C   0  0  0  0  0  0  0  0  0  0  0  0
   19.7000    9.4830   54.3960 C   0  0  0  0  0  0  0  0  0  0  0  0
   19.8440    8.1360   54.7090 C   0  0  0  0  0  0  0  0  0  0  0  0
   18.7440    7.4360   55.1810 C   0  0  0  0  0  0  0  0  0  0  0  0
   20.8890   10.2470   53.8870 C   0  0  0  0  0  0  0  0  0  0  0  0
   18.9120    5.9690   55.5130 C   0  0  0  0  0  0  0  0  0  0  0  0
   17.6030    5.2130   55.2910 C   0  0  0  0  0  0  0  0  0  0  0  0
   12.3090   -0.4380   58.4840 N   0  0  0  0  0  0  0  0  0  0  0  0
   11.1050   -0.8400   58.9370 C   0  0  0  0  0  0  0  0  0  0  0  0
   10.5470   -1.9040   58.3410 N   0  0  0  0  0  0  0  0  0  0  0  0
   10.4750   -0.1770   59.9990 C   0  0  0  0  0  0  0  0  0  0  0  0
   11.1290    0.9210   60.5650 C   0  0  0  0  0  0  0  0  0  0  0  0
   12.3730    1.3020   60.0640 C   0  0  0  0  0  0  0  0  0  0  0  0
   12.9760    0.6140   59.0050 C   0  0  0  0  0  0  0  0  0  0  0  0
   10.5100    1.7080   61.6990 C   0  0  0  0  0  0  0  0  0  0  0  0
   14.3560    0.9830   58.4280 C   0  0  0  0  0  0  0  0  0  0  0  0
   13.5580    3.2190   57.7310 N   0  0  0  0  0  0  0  0  0  0  0  0
  2  1  2  0
  6  1  1  0
  3  2  1  0
 17  2  1  0
  4  3  2  0
  5  4  1  0
  6  5  2  0
 11  6  1  0
  8  7  2  0
 14  7  1  0
  9  8  1  0
 10  8  1  0
 12 10  2  0
 26 11  1  0
 27 11  1  0
 13 12  1  0
 15 12  1  0
 14 13  2  0
 16 14  1  0
 17 16  1  0
 19 18  2  0
 24 18  1  0
 20 19  1  0
 21 19  1  0
 22 21  2  0
 23 22  1  0
 25 22  1  0
 24 23  2  0
 26 24  1  0
A    1
C1
A    2
C2
A    3
C3
A    4
C4
A    5
C5
A    6
C6
A    7
N11
A    8
C12
A    9
N12
A   10
C13
A   11
C29
A   12
C14
A   13
C15
A   14
C16
A   15
C17
A   16
C18
A   17
C19
A   18
N21
A   19
C22
A   20
N22
A   21
C23
A   22
C24
A   23
C25
A   24
C26
A   25
C27
A   26
C28
A   27
N29
M  END
>  <Id>  (93) 
4CTP_2IK_B_800

>  <ChainId>  (93) 
B

>  <AsymId>  (93) 
J

>  <SeqNum>  (93) 
800

>  <Name>  (93) 
6-[(2S)-2-amino-2-{3-[2-(6-amino-4-methylpyridin-2-yl)ethyl]phenyl}ethyl]-4-methylpyridin-2-amine

>  <SystematicName>  (93) 
6-[2-[3-[(1S)-1-azanyl-2-(6-azanyl-4-methyl-pyridin-2-yl)ethyl]phenyl]ethyl]-4-methyl-pyridin-2-amine

>  <Synonyms>  (93) 


>  <Type>  (93) 
non-polymer

>  <Formula>  (93) 
C22 H27 N5

>  <ObservedFormula>  (93) 
C22 N5

>  <MolecularWeight>  (93) 
361.483

>  <ModifiedDate>  (93) 
2014-05-02

>  <Parent>  (93) 


>  <OneLetterCode>  (93) 


>  <SubcomponentList>  (93) 


>  <AmbiguousFlag>  (93) 
N

>  <InsertionCode>  (93) 


>  <InstanceId>  (93) 
4CTP_2IK_B_800

>  <ChemCompId>  (93) 
2IK

>  <PdbId>  (93) 
4CTP

>  <ResidueNumber>  (93) 
800

>  <InChI>  (93) 
InChI=1S/C22H27N5/c1-14-8-18(26-21(24)10-14)7-6-16-4-3-5-17(12-16)20(23)13-19-9-15(2)11-22(25)27-19/h3-5,8-12,20H,6-7,13,23H2,1-2H3,(H2,24,26)(H2,25,27)/t20-/m0/s1

>  <InChIKey>  (93) 
HPGDXHOKQNTRIC-FQEVSTJZSA-N

>  <SMILES>  (93) 
Cc1cc(nc(c1)N)CCc2cccc(c2)[C@H](Cc3cc(cc(n3)N)C)N

>  <MissingHeavyAtoms>  (93) 
0

>  <Model>  (93) 
1

>  <AltIds>  (93) 


>  <pKI>  (93) 
6.84

>  <ChemblID>  (93) 
CHEMBL3262017

>  <standardized_canonical_smiles>  (93) 
Cc1cc(N)nc(CCc2cccc([C@@H](N)Cc3cc(C)cc(N)n3)c2)c1

$$$$
4CTQ_S5D_B_800
     RDKit          3D

 27 29  0  0  0  0  0  0  0  0999 V2000
   16.3180    3.8110   56.8790 C   0  0  0  0  0  0  0  0  0  0  0  0
   16.0350    2.7570   57.7340 C   0  0  0  0  0  0  0  0  0  0  0  0
   17.0910    1.9640   58.2380 C   0  0  0  0  0  0  0  0  0  0  0  0
   18.4130    2.2270   57.8580 C   0  0  0  0  0  0  0  0  0  0  0  0
   18.6970    3.2710   56.9890 C   0  0  0  0  0  0  0  0  0  0  0  0
   17.6520    4.0580   56.4950 C   0  0  0  0  0  0  0  0  0  0  0  0
   12.3070   -0.4030   58.3850 N   0  0  0  0  0  0  0  0  0  0  0  0
   11.0890   -0.8420   58.8110 C   0  0  0  0  0  0  0  0  0  0  0  0
   10.6160   -1.9420   58.2020 N   0  0  0  0  0  0  0  0  0  0  0  0
   10.4030   -0.1860   59.8510 C   0  0  0  0  0  0  0  0  0  0  0  0
   11.0140    0.9430   60.4190 C   0  0  0  0  0  0  0  0  0  0  0  0
   12.2820    1.3520   59.9480 C   0  0  0  0  0  0  0  0  0  0  0  0
   12.9420    0.6670   58.9150 C   0  0  0  0  0  0  0  0  0  0  0  0
   10.3430    1.7290   61.5290 C   0  0  0  0  0  0  0  0  0  0  0  0
   14.3610    1.0190   58.3660 C   0  0  0  0  0  0  0  0  0  0  0  0
   14.5840    2.5040   58.1070 C   0  0  0  0  0  0  0  0  0  0  0  0
   17.2740    8.2850   55.5020 N   0  0  0  0  0  0  0  0  0  0  0  0
   17.2100    9.4600   54.8380 C   0  0  0  0  0  0  0  0  0  0  0  0
   16.0030   10.0600   54.6880 N   0  0  0  0  0  0  0  0  0  0  0  0
   18.3950   10.0440   54.3410 C   0  0  0  0  0  0  0  0  0  0  0  0
   19.6190    9.3910   54.5300 C   0  0  0  0  0  0  0  0  0  0  0  0
   19.6500    8.1800   55.2250 C   0  0  0  0  0  0  0  0  0  0  0  0
   18.4470    7.6440   55.6940 C   0  0  0  0  0  0  0  0  0  0  0  0
   20.8940   10.0080   54.0040 C   0  0  0  0  0  0  0  0  0  0  0  0
   18.4230    6.3410   56.4660 C   0  0  0  0  0  0  0  0  0  0  0  0
   17.9450    5.1900   55.5790 C   0  0  0  0  0  0  0  0  0  0  0  0
   19.0130    4.8440   54.6600 N   0  0  0  0  0  0  0  0  0  0  0  0
  2  1  2  0
  6  1  1  0
  3  2  1  0
 16  2  1  0
  4  3  2  0
  5  4  1  0
  6  5  2  0
 26  6  1  0
  8  7  2  0
 13  7  1  0
  9  8  1  0
 10  8  1  0
 11 10  2  0
 12 11  1  0
 14 11  1  0
 13 12  2  0
 15 13  1  0
 16 15  1  0
 18 17  2  0
 23 17  1  0
 19 18  1  0
 20 18  1  0
 21 20  2  0
 22 21  1  0
 24 21  1  0
 23 22  2  0
 25 23  1  0
 26 25  1  0
 27 26  1  0
A    1
C1
A    2
C2
A    3
C3
A    4
C4
A    5
C5
A    6
C6
A    7
N11
A    8
C12
A    9
N12
A   10
C13
A   11
C14
A   12
C15
A   13
C16
A   14
C17
A   15
C18
A   16
C19
A   17
N21
A   18
C22
A   19
N22
A   20
C23
A   21
C24
A   22
C25
A   23
C26
A   24
C27
A   25
C28
A   26
C29
A   27
N29
M  END
>  <Id>  (94) 
4CTQ_S5D_B_800

>  <ChainId>  (94) 
B

>  <AsymId>  (94) 
J

>  <SeqNum>  (94) 
800

>  <Name>  (94) 
(R)-6-(2-Amino-2-(3-(2-(6-amino-4-methylpyridin-2-yl)ethyl)phenyl)ethyl)-4-methylpyridin-2-amine

>  <SystematicName>  (94) 
6-[2-[3-[(1R)-1-azanyl-2-(6-azanyl-4-methyl-pyridin-2-yl)ethyl]phenyl]ethyl]-4-methyl-pyridin-2-amine

>  <Synonyms>  (94) 


>  <Type>  (94) 
NON-POLYMER

>  <Formula>  (94) 
C22 H27 N5

>  <ObservedFormula>  (94) 
C22 N5

>  <MolecularWeight>  (94) 
361.483

>  <ModifiedDate>  (94) 
2014-05-02

>  <Parent>  (94) 


>  <OneLetterCode>  (94) 


>  <SubcomponentList>  (94) 


>  <AmbiguousFlag>  (94) 
N

>  <InsertionCode>  (94) 


>  <InstanceId>  (94) 
4CTQ_S5D_B_800

>  <ChemCompId>  (94) 
S5D

>  <PdbId>  (94) 
4CTQ

>  <ResidueNumber>  (94) 
800

>  <InChI>  (94) 
InChI=1S/C22H27N5/c1-14-8-18(26-21(24)10-14)7-6-16-4-3-5-17(12-16)20(23)13-19-9-15(2)11-22(25)27-19/h3-5,8-12,20H,6-7,13,23H2,1-2H3,(H2,24,26)(H2,25,27)/t20-/m1/s1

>  <InChIKey>  (94) 
HPGDXHOKQNTRIC-HXUWFJFHSA-N

>  <SMILES>  (94) 
Cc1cc(nc(c1)N)CCc2cccc(c2)[C@@H](Cc3cc(cc(n3)N)C)N

>  <MissingHeavyAtoms>  (94) 
0

>  <Model>  (94) 
1

>  <AltIds>  (94) 


>  <pKI>  (94) 
6.91

>  <ChemblID>  (94) 
CHEMBL3262018

>  <standardized_canonical_smiles>  (94) 
Cc1cc(N)nc(CCc2cccc([C@H](N)Cc3cc(C)cc(N)n3)c2)c1

$$$$
4CTR_S20_B_800
     RDKit          3D

 27 29  0  0  0  0  0  0  0  0999 V2000
   20.0270    6.2850   54.7350 C   0  0  0  0  0  0  0  0  0  0  0  0
   17.1130    4.5380   55.9290 C   0  0  0  0  0  0  0  0  0  0  0  0
   18.2660    2.5770   56.7800 C   0  0  0  0  0  0  0  0  0  0  0  0
   21.1070    7.8440   53.2800 C   0  0  0  0  0  0  0  0  0  0  0  0
   22.2070    5.5920   53.6780 C   0  0  0  0  0  0  0  0  0  0  0  0
   19.0050    7.2300   54.9330 C   0  0  0  0  0  0  0  0  0  0  0  0
   11.2180    0.8650   60.4390 C   0  0  0  0  0  0  0  0  0  0  0  0
   15.9290    4.1740   56.5790 C   0  0  0  0  0  0  0  0  0  0  0  0
   10.6210   -0.2530   59.8760 C   0  0  0  0  0  0  0  0  0  0  0  0
   11.2130   -0.8670   58.7750 C   0  0  0  0  0  0  0  0  0  0  0  0
   18.2800    3.7510   56.0230 C   0  0  0  0  0  0  0  0  0  0  0  0
   14.5920    2.6230   58.0050 C   0  0  0  0  0  0  0  0  0  0  0  0
   17.0760    5.8100   55.1200 C   0  0  0  0  0  0  0  0  0  0  0  0
   14.3380    1.1000   58.1100 C   0  0  0  0  0  0  0  0  0  0  0  0
   17.0670    2.2160   57.4210 C   0  0  0  0  0  0  0  0  0  0  0  0
   21.0950    6.5890   53.8980 C   0  0  0  0  0  0  0  0  0  0  0  0
   10.6460   -1.9520   58.2310 N   0  0  0  0  0  0  0  0  0  0  0  0
   12.4290    1.3160   59.8950 C   0  0  0  0  0  0  0  0  0  0  0  0
   20.0590    8.7540   53.5050 C   0  0  0  0  0  0  0  0  0  0  0  0
   13.0150    0.6730   58.7760 C   0  0  0  0  0  0  0  0  0  0  0  0
   20.0570    9.9740   52.9170 N   0  0  0  0  0  0  0  0  0  0  0  0
   15.8830    2.9970   57.3230 C   0  0  0  0  0  0  0  0  0  0  0  0
   12.3710   -0.4020   58.2660 N   0  0  0  0  0  0  0  0  0  0  0  0
   13.4740    3.3010   57.4070 O   0  0  0  0  0  0  0  0  0  0  0  0
   17.8380    6.9160   55.8310 C   0  0  0  0  0  0  0  0  0  0  0  0
   10.5560    1.5260   61.6230 C   0  0  0  0  0  0  0  0  0  0  0  0
   19.0310    8.4330   54.3200 N   0  0  0  0  0  0  0  0  0  0  0  0
  3 15  2  0
 19 21  1  0
 16  5  1  0
  1  6  2  0
 10  9  2  0
 15 22  1  0
  6 25  1  0
  7 18  2  0
 11  3  1  0
 27  6  1  0
  7 26  1  0
 23 20  2  0
 12 24  1  0
  4 16  2  0
 18 20  1  0
 27 19  2  0
 23 10  1  0
 14 12  1  0
 22 12  1  0
 25 13  1  0
  2 13  1  0
 20 14  1  0
 19  4  1  0
  8 22  2  0
  8  2  1  0
  9  7  1  0
  2 11  2  0
 10 17  1  0
 16  1  1  0
A    1
C15
A    2
C2
A    3
C4
A    4
C13
A    5
C17
A    6
C16
A    7
C24
A    8
C1
A    9
C23
A   10
C22
A   11
C3
A   12
C29
A   13
C19
A   14
C28
A   15
C5
A   16
C14
A   17
N22
A   18
C25
A   19
C12
A   20
C26
A   21
N12
A   22
C6
A   23
N21
A   24
O29
A   25
C18
A   26
C27
A   27
N11
M  END
>  <InstanceId>  (95) 
4CTR_S20_B_800

>  <ChemCompId>  (95) 
S20

>  <PdbId>  (95) 
4CTR

>  <ChainId>  (95) 
B

>  <ResidueNumber>  (95) 
800

>  <InsertionCode>  (95) 


>  <Model>  (95) 
1

>  <AltIds>  (95) 


>  <MissingHeavyAtoms>  (95) 
0

>  <ObservedFormula>  (95) 
C22 N4 O

>  <AsymId>  (95) 
J

>  <SeqNum>  (95) 
800

>  <Name>  (95) 
(1S)-2-(6-amino-4-methylpyridin-2-yl)-1-{3-[2-(6-amino-4-methylpyridin-2-yl)ethyl]phenyl}ethanol

>  <SystematicName>  (95) 
(1S)-2-(6-azanyl-4-methyl-pyridin-2-yl)-1-[3-[2-(6-azanyl-4-methyl-pyridin-2-yl)ethyl]phenyl]ethanol

>  <Synonyms>  (95) 


>  <Type>  (95) 
NON-POLYMER

>  <Formula>  (95) 
C22 H26 N4 O

>  <MolecularWeight>  (95) 
362.468

>  <ModifiedDate>  (95) 
2014-05-02

>  <Parent>  (95) 


>  <OneLetterCode>  (95) 


>  <SubcomponentList>  (95) 


>  <AmbiguousFlag>  (95) 
N

>  <InChI>  (95) 
null

>  <InChIKey>  (95) 
null

>  <SMILES>  (95) 
Cc1cc(nc(c1)N)CCc2cccc(c2)[C@H](Cc3cc(cc(n3)N)C)O

>  <pKI>  (95) 
7.15

>  <ChemblID>  (95) 
CHEMBL3262019

>  <standardized_canonical_smiles>  (95) 
Cc1cc(N)nc(CCc2cccc(C(O)Cc3cc(C)cc(N)n3)c2)c1

$$$$
4CTT_S7K_B_800
     RDKit          3D

 26 28  0  0  0  0  0  0  0  0999 V2000
   15.9160    3.4820   57.3250 C   0  0  0  0  0  0  0  0  0  0  0  0
   15.9540    4.8610   57.4780 C   0  0  0  0  0  0  0  0  0  0  0  0
   14.7900    5.5290   57.8710 C   0  0  0  0  0  0  0  0  0  0  0  0
   13.6040    4.8110   58.1230 C   0  0  0  0  0  0  0  0  0  0  0  0
   13.5790    3.4260   57.9430 C   0  0  0  0  0  0  0  0  0  0  0  0
   14.7500    2.7590   57.5450 C   0  0  0  0  0  0  0  0  0  0  0  0
   19.4460    5.6890   54.3930 N   0  0  0  0  0  0  0  0  0  0  0  0
   20.5390    6.2100   53.7970 C   0  0  0  0  0  0  0  0  0  0  0  0
   20.6970    7.5970   53.7400 C   0  0  0  0  0  0  0  0  0  0  0  0
   19.7220    8.4290   54.2990 C   0  0  0  0  0  0  0  0  0  0  0  0
   18.5980    7.8650   54.9180 C   0  0  0  0  0  0  0  0  0  0  0  0
   18.4730    6.4660   54.9740 C   0  0  0  0  0  0  0  0  0  0  0  0
   19.8850    9.9240   54.2370 C   0  0  0  0  0  0  0  0  0  0  0  0
   17.2480    5.8180   55.6240 C   0  0  0  0  0  0  0  0  0  0  0  0
   17.2490    5.6040   57.1610 C   0  0  0  0  0  0  0  0  0  0  0  0
   12.5690   -0.5410   58.6590 N   0  0  0  0  0  0  0  0  0  0  0  0
   11.2950   -0.7990   59.0410 C   0  0  0  0  0  0  0  0  0  0  0  0
   10.6160   -1.7730   58.4010 N   0  0  0  0  0  0  0  0  0  0  0  0
   10.6960   -0.0750   60.0910 C   0  0  0  0  0  0  0  0  0  0  0  0
   11.4130    0.9200   60.7500 C   0  0  0  0  0  0  0  0  0  0  0  0
   12.7280    1.1610   60.3370 C   0  0  0  0  0  0  0  0  0  0  0  0
   13.2960    0.4260   59.2750 C   0  0  0  0  0  0  0  0  0  0  0  0
   10.7690    1.7020   61.8720 C   0  0  0  0  0  0  0  0  0  0  0  0
   14.7300    0.6690   58.8170 C   0  0  0  0  0  0  0  0  0  0  0  0
   14.7710    1.2750   57.4040 C   0  0  0  0  0  0  0  0  0  0  0  0
   15.9390    0.7240   56.6870 N   0  0  0  0  0  0  0  0  0  0  0  0
  2  1  2  0
  6  1  1  0
  3  2  1  0
 15  2  1  0
  4  3  2  0
  5  4  1  0
  6  5  2  0
 25  6  1  0
  8  7  2  0
 12  7  1  0
  9  8  1  0
 10  9  2  0
 11 10  1  0
 13 10  1  0
 12 11  2  0
 14 12  1  0
 15 14  1  0
 17 16  2  0
 22 16  1  0
 18 17  1  0
 19 17  1  0
 20 19  2  0
 21 20  1  0
 23 20  1  0
 22 21  2  0
 24 22  1  0
 25 24  1  0
 26 25  1  0
A    1
C1
A    2
C2
A    3
C3
A    4
C4
A    5
C5
A    6
C6
A    7
N11
A    8
C12
A    9
C13
A   10
C14
A   11
C15
A   12
C16
A   13
C17
A   14
C18
A   15
C19
A   16
N21
A   17
C22
A   18
N22
A   19
C23
A   20
C24
A   21
C25
A   22
C26
A   23
C27
A   24
C28
A   25
C29
A   26
N29
M  END
>  <Id>  (96) 
4CTT_S7K_B_800

>  <ChainId>  (96) 
B

>  <AsymId>  (96) 
J

>  <SeqNum>  (96) 
800

>  <Name>  (96) 
(S)-6-(2-amino-2-(3-(2-(4-methylpyridin-2-yl)ethyl)phenyl)ethyl)-4-methylpyridin-2-amine

>  <SystematicName>  (96) 
6-[(2S)-2-azanyl-2-[3-[2-(4-methylpyridin-2-yl)ethyl]phenyl]ethyl]-4-methyl-pyridin-2-amine

>  <Synonyms>  (96) 


>  <Type>  (96) 
NON-POLYMER

>  <Formula>  (96) 
C22 H26 N4

>  <ObservedFormula>  (96) 
C22 N4

>  <MolecularWeight>  (96) 
346.469

>  <ModifiedDate>  (96) 
2014-05-02

>  <Parent>  (96) 


>  <OneLetterCode>  (96) 


>  <SubcomponentList>  (96) 


>  <AmbiguousFlag>  (96) 
N

>  <InsertionCode>  (96) 


>  <InstanceId>  (96) 
4CTT_S7K_B_800

>  <ChemCompId>  (96) 
S7K

>  <PdbId>  (96) 
4CTT

>  <ResidueNumber>  (96) 
800

>  <InChI>  (96) 
InChI=1S/C22H26N4/c1-15-8-9-25-19(10-15)7-6-17-4-3-5-18(13-17)21(23)14-20-11-16(2)12-22(24)26-20/h3-5,8-13,21H,6-7,14,23H2,1-2H3,(H2,24,26)/t21-/m0/s1

>  <InChIKey>  (96) 
NRRPWROZZNIOKD-NRFANRHFSA-N

>  <SMILES>  (96) 
Cc1ccnc(c1)CCc2cccc(c2)[C@H](Cc3cc(cc(n3)N)C)N

>  <MissingHeavyAtoms>  (96) 
0

>  <Model>  (96) 
1

>  <AltIds>  (96) 


>  <pKI>  (96) 
6.04

>  <ChemblID>  (96) 
CHEMBL3262020

>  <standardized_canonical_smiles>  (96) 
Cc1ccnc(CCc2cccc([C@@H](N)Cc3cc(C)cc(N)n3)c2)c1

$$$$
4CTU_S42_B_800
     RDKit          3D

 28 30  0  0  0  0  0  0  0  0999 V2000
   12.2520   -0.5740   58.1670 N   0  0  0  0  0  0  0  0  0  0  0  0
   11.0420   -1.0000   58.6060 C   0  0  0  0  0  0  0  0  0  0  0  0
   10.4950   -2.0950   58.0160 N   0  0  0  0  0  0  0  0  0  0  0  0
   10.3950   -0.3120   59.6370 C   0  0  0  0  0  0  0  0  0  0  0  0
   11.0200    0.8100   60.1920 C   0  0  0  0  0  0  0  0  0  0  0  0
   12.2760    1.2080   59.7210 C   0  0  0  0  0  0  0  0  0  0  0  0
   12.8940    0.5040   58.6810 C   0  0  0  0  0  0  0  0  0  0  0  0
   10.3710    1.5920   61.3010 C   0  0  0  0  0  0  0  0  0  0  0  0
   14.2910    0.8600   58.1300 C   0  0  0  0  0  0  0  0  0  0  0  0
   14.5730    2.3530   57.9980 C   0  0  0  0  0  0  0  0  0  0  0  0
   15.9780    2.6560   57.5100 C   0  0  0  0  0  0  0  0  0  0  0  0
   17.1090    1.8810   57.8220 C   0  0  0  0  0  0  0  0  0  0  0  0
   18.3880    2.2160   57.3250 C   0  0  0  0  0  0  0  0  0  0  0  0
   18.5610    3.3300   56.5160 C   0  0  0  0  0  0  0  0  0  0  0  0
   17.4240    4.1030   56.2130 C   0  0  0  0  0  0  0  0  0  0  0  0
   16.1500    3.7780   56.7180 C   0  0  0  0  0  0  0  0  0  0  0  0
   17.1580    8.3380   55.3100 N   0  0  0  0  0  0  0  0  0  0  0  0
   17.0150    9.5290   54.6620 C   0  0  0  0  0  0  0  0  0  0  0  0
   15.8210   10.1980   54.7100 N   0  0  0  0  0  0  0  0  0  0  0  0
   18.1260   10.0500   53.9730 C   0  0  0  0  0  0  0  0  0  0  0  0
   19.3420    9.3340   53.9540 C   0  0  0  0  0  0  0  0  0  0  0  0
   19.4440    8.1150   54.6190 C   0  0  0  0  0  0  0  0  0  0  0  0
   18.3340    7.6400   55.2990 C   0  0  0  0  0  0  0  0  0  0  0  0
   20.5560    9.8480   53.2200 C   0  0  0  0  0  0  0  0  0  0  0  0
   18.4510    6.3210   56.0140 C   0  0  0  0  0  0  0  0  0  0  0  0
   17.5040    5.3150   55.3580 C   0  0  0  0  0  0  0  0  0  0  0  0
   17.8900    4.9780   53.9100 C   0  0  0  0  0  0  0  0  0  0  0  0
   17.3440    3.7020   53.5060 N   0  0  0  0  0  0  0  0  0  0  0  0
  2  1  2  0
  7  1  1  0
  3  2  1  0
  4  2  1  0
  5  4  2  0
  6  5  1  0
  8  5  1  0
  7  6  2  0
  9  7  1  0
 10  9  1  0
 11 10  1  0
 12 11  2  0
 16 11  1  0
 13 12  1  0
 14 13  2  0
 15 14  1  0
 16 15  2  0
 26 15  1  0
 18 17  2  0
 23 17  1  0
 19 18  1  0
 20 18  1  0
 21 20  2  0
 22 21  1  0
 24 21  1  0
 23 22  2  0
 25 23  1  0
 26 25  1  0
 27 26  1  0
 28 27  1  0
A    1
N01
A    2
C02
A    3
N02
A    4
C03
A    5
C04
A    6
C05
A    7
C06
A    8
C07
A    9
C08
A   10
C09
A   11
C11
A   12
C12
A   13
C13
A   14
C14
A   15
C15
A   16
C16
A   17
N21
A   18
C22
A   19
N22
A   20
C23
A   21
C24
A   22
C25
A   23
C26
A   24
C27
A   25
C28
A   26
C29
A   27
C30
A   28
N31
M  END
>  <Id>  (97) 
4CTU_S42_B_800

>  <ChainId>  (97) 
B

>  <AsymId>  (97) 
J

>  <SeqNum>  (97) 
800

>  <Name>  (97) 
6-[(2R)-3-amino-2-{3-[2-(6-amino-4-methylpyridin-2-yl)ethyl]phenyl}propyl]-4-methylpyridin-2-amine

>  <SystematicName>  (97) 
6-[2-[3-[(2R)-1-azanyl-3-(6-azanyl-4-methyl-pyridin-2-yl)propan-2-yl]phenyl]ethyl]-4-methyl-pyridin-2-amine

>  <Synonyms>  (97) 


>  <Type>  (97) 
NON-POLYMER

>  <Formula>  (97) 
C23 H29 N5

>  <ObservedFormula>  (97) 
C23 N5

>  <MolecularWeight>  (97) 
375.51

>  <ModifiedDate>  (97) 
2014-05-02

>  <Parent>  (97) 


>  <OneLetterCode>  (97) 


>  <SubcomponentList>  (97) 


>  <AmbiguousFlag>  (97) 
N

>  <InsertionCode>  (97) 


>  <InstanceId>  (97) 
4CTU_S42_B_800

>  <ChemCompId>  (97) 
S42

>  <PdbId>  (97) 
4CTU

>  <ResidueNumber>  (97) 
800

>  <InChI>  (97) 
InChI=1S/C23H29N5/c1-15-8-20(27-22(25)10-15)7-6-17-4-3-5-18(12-17)19(14-24)13-21-9-16(2)11-23(26)28-21/h3-5,8-12,19H,6-7,13-14,24H2,1-2H3,(H2,25,27)(H2,26,28)/t19-/m0/s1

>  <InChIKey>  (97) 
ZFHITWHLDPDYFG-IBGZPJMESA-N

>  <SMILES>  (97) 
Cc1cc(nc(c1)N)CCc2cccc(c2)[C@@H](Cc3cc(cc(n3)N)C)CN

>  <MissingHeavyAtoms>  (97) 
0

>  <Model>  (97) 
1

>  <AltIds>  (97) 


>  <pKI>  (97) 
7.28

>  <ChemblID>  (97) 
CHEMBL3262022

>  <standardized_canonical_smiles>  (97) 
Cc1cc(N)nc(CCc2cccc(C(CN)Cc3cc(C)cc(N)n3)c2)c1

$$$$
4CTV_7S7_B_1721
     RDKit          3D

 28 30  0  0  0  0  0  0  0  0999 V2000
   10.6720   -1.9250   58.2090 N   0  0  0  0  0  0  0  0  0  0  0  0
   16.0500   -0.5870   56.0340 N   0  0  0  0  0  0  0  0  0  0  0  0
   14.8000    5.5950   57.9180 C   0  0  0  0  0  0  0  0  0  0  0  0
   18.8000    9.2890   54.2940 C   0  0  0  0  0  0  0  0  0  0  0  0
   21.1870    8.6660   53.8110 C   0  0  0  0  0  0  0  0  0  0  0  0
   10.7230   -0.2400   59.9360 C   0  0  0  0  0  0  0  0  0  0  0  0
   16.1680    0.7840   56.6200 C   0  0  0  0  0  0  0  0  0  0  0  0
   15.9660    3.5790   57.4220 N   0  0  0  0  0  0  0  0  0  0  0  0
   17.3360    7.7330   55.3440 N   0  0  0  0  0  0  0  0  0  0  0  0
   16.4810    9.8530   54.7760 N   0  0  0  0  0  0  0  0  0  0  0  0
   11.2860   -0.9030   58.8520 C   0  0  0  0  0  0  0  0  0  0  0  0
   14.8890    1.3300   57.3550 C   0  0  0  0  0  0  0  0  0  0  0  0
   13.2810    0.3900   59.1100 C   0  0  0  0  0  0  0  0  0  0  0  0
   13.6200    3.4600   57.8600 C   0  0  0  0  0  0  0  0  0  0  0  0
   12.5950   -0.6060   58.4830 N   0  0  0  0  0  0  0  0  0  0  0  0
   17.9470    5.4630   56.0420 C   0  0  0  0  0  0  0  0  0  0  0  0
   14.7430    0.7120   58.7130 C   0  0  0  0  0  0  0  0  0  0  0  0
   11.3740    0.8220   60.5650 C   0  0  0  0  0  0  0  0  0  0  0  0
   10.8390    1.6130   61.7390 C   0  0  0  0  0  0  0  0  0  0  0  0
   19.8190    8.3340   54.3600 C   0  0  0  0  0  0  0  0  0  0  0  0
   12.7190    1.0760   60.1890 C   0  0  0  0  0  0  0  0  0  0  0  0
   13.6040    4.8570   58.0480 C   0  0  0  0  0  0  0  0  0  0  0  0
   17.2880    5.7200   57.4200 C   0  0  0  0  0  0  0  0  0  0  0  0
   17.5280    8.9630   54.8010 C   0  0  0  0  0  0  0  0  0  0  0  0
   18.3030    6.7940   55.4150 C   0  0  0  0  0  0  0  0  0  0  0  0
   15.9830    4.9340   57.5890 C   0  0  0  0  0  0  0  0  0  0  0  0
   14.8420    2.8200   57.5570 C   0  0  0  0  0  0  0  0  0  0  0  0
   19.5810    7.0740   54.9200 C   0  0  0  0  0  0  0  0  0  0  0  0
  7  2  1  0
 18 21  1  0
 20  5  1  0
  8 26  1  0
 12 27  1  0
 27  8  2  0
 16 25  1  0
 20 28  2  0
 25  9  2  0
 18 19  1  0
 24  4  2  0
  3 26  2  0
  6 18  2  0
  9 24  1  0
 23 16  1  0
 27 14  1  0
  1 11  1  0
 22  3  1  0
 12  7  1  0
 15 13  1  0
  4 20  1  0
 14 22  2  0
 21 13  2  0
 13 17  1  0
 24 10  1  0
 11 15  2  0
 11  6  1  0
 17 12  1  0
 25 28  1  0
 26 23  1  0
A    1
N22
A    2
N19
A    3
C13
A    4
C03
A    5
C07
A    6
C23
A    7
C18
A    8
N11
A    9
N01
A   10
N02
A   11
C22
A   12
C17
A   13
C26
A   14
C15
A   15
N21
A   16
C08
A   17
C20
A   18
C24
A   19
C27
A   20
C04
A   21
C25
A   22
C14
A   23
C09
A   24
C02
A   25
C06
A   26
C12
A   27
C16
A   28
C05
M  END
>  <InstanceId>  (98) 
4CTV_7S7_B_1721

>  <ChemCompId>  (98) 
7S7

>  <PdbId>  (98) 
4CTV

>  <ChainId>  (98) 
B

>  <ResidueNumber>  (98) 
1721

>  <InsertionCode>  (98) 


>  <Model>  (98) 
1

>  <AltIds>  (98) 


>  <MissingHeavyAtoms>  (98) 
0

>  <ObservedFormula>  (98) 
C22 N6

>  <AsymId>  (98) 
J

>  <SeqNum>  (98) 
1721

>  <Name>  (98) 
6-(3-amino-2-(6-(2-(6-amino-4-methylpyridin-2-yl)ethyl)pyridin-2-yl)propyl)-4-methylpyridin-2-amine

>  <SystematicName>  (98) 
6-[2-[6-[(2R)-1-azanyl-3-(6-azanyl-4-methyl-pyridin-2-yl)propan-2-yl]pyridin-2-yl]ethyl]-4-methyl-pyridin-2-amine

>  <Synonyms>  (98) 


>  <Type>  (98) 
non-polymer

>  <Formula>  (98) 
C22 H28 N6

>  <MolecularWeight>  (98) 
376.498

>  <ModifiedDate>  (98) 
2014-05-02

>  <Parent>  (98) 


>  <OneLetterCode>  (98) 


>  <SubcomponentList>  (98) 


>  <AmbiguousFlag>  (98) 
N

>  <InChI>  (98) 
null

>  <InChIKey>  (98) 
null

>  <SMILES>  (98) 
Cc1cc(nc(c1)N)CCc2cccc(n2)[C@H](Cc3cc(cc(n3)N)C)CN

>  <pKI>  (98) 
6.91

>  <ChemblID>  (98) 
CHEMBL3262023

>  <standardized_canonical_smiles>  (98) 
Cc1cc(N)nc(CCc2cccc(C(CN)Cc3cc(C)cc(N)n3)n2)c1

$$$$
4CTX_71S_B_800
     RDKit          3D

 28 30  0  0  0  0  0  0  0  0999 V2000
   16.1080    9.7060   54.5550 N   0  0  0  0  0  0  0  0  0  0  0  0
   17.3150    9.0330   54.5680 C   0  0  0  0  0  0  0  0  0  0  0  0
   18.4810    9.5040   53.9370 C   0  0  0  0  0  0  0  0  0  0  0  0
   19.6520    8.7390   54.0500 C   0  0  0  0  0  0  0  0  0  0  0  0
   20.9040    9.2130   53.3950 C   0  0  0  0  0  0  0  0  0  0  0  0
   19.6940    7.5450   54.7760 C   0  0  0  0  0  0  0  0  0  0  0  0
   17.4020    7.8760   55.2660 N   0  0  0  0  0  0  0  0  0  0  0  0
   18.5260    7.1250   55.3700 C   0  0  0  0  0  0  0  0  0  0  0  0
   18.4270    5.8550   56.2330 C   0  0  0  0  0  0  0  0  0  0  0  0
   18.3940    4.5630   55.4300 C   0  0  0  0  0  0  0  0  0  0  0  0
   17.9760    3.4070   56.3030 C   0  0  0  0  0  0  0  0  0  0  0  0
   18.9280    2.4460   56.5420 C   0  0  0  0  0  0  0  0  0  0  0  0
   17.6600    3.4500   53.5010 N   0  0  0  0  0  0  0  0  0  0  0  0
   17.3850    1.1980   57.8730 C   0  0  0  0  0  0  0  0  0  0  0  0
   16.6820    3.2860   56.8810 C   0  0  0  0  0  0  0  0  0  0  0  0
   16.3830    2.1690   57.6740 C   0  0  0  0  0  0  0  0  0  0  0  0
   15.0330    1.9810   58.2870 C   0  0  0  0  0  0  0  0  0  0  0  0
   14.3170    0.8730   58.0300 C   0  0  0  0  0  0  0  0  0  0  0  0
   12.9440    0.5340   58.5690 C   0  0  0  0  0  0  0  0  0  0  0  0
   12.2880   -0.5590   58.1010 N   0  0  0  0  0  0  0  0  0  0  0  0
   11.0840   -0.9470   58.5620 C   0  0  0  0  0  0  0  0  0  0  0  0
   10.5570   -2.0580   57.9860 N   0  0  0  0  0  0  0  0  0  0  0  0
   10.4670   -0.2490   59.6240 C   0  0  0  0  0  0  0  0  0  0  0  0
   11.0830    0.8850   60.1160 C   0  0  0  0  0  0  0  0  0  0  0  0
   12.3340    1.2600   59.6020 C   0  0  0  0  0  0  0  0  0  0  0  0
   10.5140    1.7090   61.3090 C   0  0  0  0  0  0  0  0  0  0  0  0
   17.4070    4.6800   54.2650 C   0  0  0  0  0  0  0  0  0  0  0  0
   18.6110    1.3860   57.3060 N   0  0  0  0  0  0  0  0  0  0  0  0
  2  1  1  0
  3  2  2  0
  7  2  1  0
  4  3  1  0
  5  4  1  0
  6  4  2  0
  8  6  1  0
  8  7  2  0
  9  8  1  0
 10  9  1  0
 11 10  1  0
 27 10  1  0
 12 11  2  0
 15 11  1  0
 28 12  1  0
 27 13  1  0
 16 14  1  0
 28 14  2  0
 16 15  2  0
 17 16  1  0
 18 17  1  0
 19 18  1  0
 20 19  2  0
 25 19  1  0
 21 20  1  0
 22 21  1  0
 23 21  2  0
 24 23  1  0
 25 24  2  0
 26 24  1  0
A    1
N22
A    2
C22
A    3
C23
A    4
C24
A    5
C27
A    6
C25
A    7
N21
A    8
C26
A    9
C28
A   10
C29
A   11
C15
A   12
C14
A   13
N18
A   14
C12
A   15
C16
A   16
C11
A   17
C09
A   18
C08
A   19
C06
A   20
N01
A   21
C02
A   22
N02
A   23
C03
A   24
C04
A   25
C05
A   26
C07
A   27
C18
A   28
N11
M  END
>  <Id>  (99) 
4CTX_71S_B_800

>  <ChainId>  (99) 
B

>  <AsymId>  (99) 
J

>  <SeqNum>  (99) 
800

>  <Name>  (99) 
6-[(2S)-3-amino-2-{5-[2-(6-amino-4-methylpyridin-2-yl)ethyl]pyridin-3-yl}propyl]-4-methylpyridin-2-amine

>  <SystematicName>  (99) 
6-[2-[5-[(2S)-1-azanyl-3-(6-azanyl-4-methyl-pyridin-2-yl)propan-2-yl]pyridin-3-yl]ethyl]-4-methyl-pyridin-2-amine

>  <Synonyms>  (99) 


>  <Type>  (99) 
non-polymer

>  <Formula>  (99) 
C22 H28 N6

>  <ObservedFormula>  (99) 
C22 N6

>  <MolecularWeight>  (99) 
376.498

>  <ModifiedDate>  (99) 
2014-05-02

>  <Parent>  (99) 


>  <OneLetterCode>  (99) 


>  <SubcomponentList>  (99) 


>  <AmbiguousFlag>  (99) 
N

>  <InsertionCode>  (99) 


>  <InstanceId>  (99) 
4CTX_71S_B_800

>  <ChemCompId>  (99) 
71S

>  <PdbId>  (99) 
4CTX

>  <ResidueNumber>  (99) 
800

>  <InChI>  (99) 
InChI=1S/C22H28N6/c1-14-5-19(27-21(24)7-14)4-3-16-9-18(13-26-12-16)17(11-23)10-20-6-15(2)8-22(25)28-20/h5-9,12-13,17H,3-4,10-11,23H2,1-2H3,(H2,24,27)(H2,25,28)/t17-/m1/s1

>  <InChIKey>  (99) 
HKLFDCGBVFYQPQ-QGZVFWFLSA-N

>  <SMILES>  (99) 
Cc1cc(nc(c1)N)CCc2cc(cnc2)[C@H](Cc3cc(cc(n3)N)C)CN

>  <MissingHeavyAtoms>  (99) 
0

>  <Model>  (99) 
1

>  <AltIds>  (99) 


>  <pKI>  (99) 
7.15

>  <ChemblID>  (99) 
CHEMBL3262025

>  <standardized_canonical_smiles>  (99) 
Cc1cc(N)nc(CCc2cncc([C@@H](CN)Cc3cc(C)cc(N)n3)c2)c1

$$$$
4CTW_S71_B_1721
     RDKit          3D

 28 30  0  0  0  0  0  0  0  0999 V2000
   16.1210    9.8730   54.7140 N   0  0  0  0  0  0  0  0  0  0  0  0
   17.3010    9.1940   54.7240 C   0  0  0  0  0  0  0  0  0  0  0  0
   18.4390    9.7670   54.1110 C   0  0  0  0  0  0  0  0  0  0  0  0
   19.6530    9.0850   54.1190 C   0  0  0  0  0  0  0  0  0  0  0  0
   20.8820    9.6940   53.4650 C   0  0  0  0  0  0  0  0  0  0  0  0
   19.7350    7.8440   54.7620 C   0  0  0  0  0  0  0  0  0  0  0  0
   17.4070    7.9930   55.3350 N   0  0  0  0  0  0  0  0  0  0  0  0
   18.5970    7.3050   55.3580 C   0  0  0  0  0  0  0  0  0  0  0  0
   18.7220    5.9580   56.0450 C   0  0  0  0  0  0  0  0  0  0  0  0
   17.7990    4.9400   55.4020 C   0  0  0  0  0  0  0  0  0  0  0  0
   18.0600    4.7330   53.9040 C   0  0  0  0  0  0  0  0  0  0  0  0
   17.6230    3.4220   53.4910 N   0  0  0  0  0  0  0  0  0  0  0  0
   17.7740    3.6950   56.2310 C   0  0  0  0  0  0  0  0  0  0  0  0
   18.8400    2.8030   56.3130 C   0  0  0  0  0  0  0  0  0  0  0  0
   18.7220    1.7080   57.0780 N   0  0  0  0  0  0  0  0  0  0  0  0
   17.5950    1.4480   57.7900 C   0  0  0  0  0  0  0  0  0  0  0  0
   16.5970    3.4630   56.9590 C   0  0  0  0  0  0  0  0  0  0  0  0
   16.5030    2.3180   57.7340 C   0  0  0  0  0  0  0  0  0  0  0  0
   15.2310    2.0620   58.5310 C   0  0  0  0  0  0  0  0  0  0  0  0
   14.4690    0.8820   57.9750 C   0  0  0  0  0  0  0  0  0  0  0  0
   13.0990    0.6310   58.6210 C   0  0  0  0  0  0  0  0  0  0  0  0
   12.5210    1.3990   59.6460 C   0  0  0  0  0  0  0  0  0  0  0  0
   11.2590    1.0150   60.1630 C   0  0  0  0  0  0  0  0  0  0  0  0
   10.5990    1.8240   61.2600 C   0  0  0  0  0  0  0  0  0  0  0  0
   12.4320   -0.4570   58.1730 N   0  0  0  0  0  0  0  0  0  0  0  0
   11.2210   -0.8370   58.6400 C   0  0  0  0  0  0  0  0  0  0  0  0
   10.6520   -1.9400   58.1050 N   0  0  0  0  0  0  0  0  0  0  0  0
   10.6100   -0.1140   59.6650 C   0  0  0  0  0  0  0  0  0  0  0  0
  2  1  1  0
  3  2  2  0
  7  2  1  0
  4  3  1  0
  5  4  1  0
  6  4  2  0
  8  6  1  0
  8  7  2  0
  9  8  1  0
 10  9  1  0
 11 10  1  0
 13 10  1  0
 12 11  1  0
 14 13  2  0
 17 13  1  0
 15 14  1  0
 16 15  2  0
 18 16  1  0
 18 17  2  0
 19 18  1  0
 20 19  1  0
 21 20  1  0
 22 21  2  0
 25 21  1  0
 23 22  1  0
 24 23  1  0
 28 23  2  0
 26 25  2  0
 27 26  1  0
 28 26  1  0
A    1
N22
A    2
C22
A    3
C23
A    4
C24
A    5
C27
A    6
C25
A    7
N21
A    8
C26
A    9
C20
A   10
C17
A   11
C18
A   12
N19
A   13
C15
A   14
C16
A   15
N11
A   16
C12
A   17
C14
A   18
C13
A   19
C09
A   20
C08
A   21
C06
A   22
C05
A   23
C04
A   24
C07
A   25
N01
A   26
C02
A   27
N02
A   28
C03
M  END
>  <Id>  (100) 
4CTW_S71_B_1721

>  <ChainId>  (100) 
B

>  <AsymId>  (100) 
J

>  <SeqNum>  (100) 
1721

>  <Name>  (100) 
(R)-6-(3-amino-2-(5-(2-(6-amino-4-methylpyridin-2-yl)ethyl)pyridin-3-yl)propyl)-4-methylpyridin-2-amine

>  <SystematicName>  (100) 
6-[2-[5-[(2R)-1-azanyl-3-(6-azanyl-4-methyl-pyridin-2-yl)propan-2-yl]pyridin-3-yl]ethyl]-4-methyl-pyridin-2-amine

>  <Synonyms>  (100) 


>  <Type>  (100) 
non-polymer

>  <Formula>  (100) 
C22 H28 N6

>  <ObservedFormula>  (100) 
C22 N6

>  <MolecularWeight>  (100) 
376.498

>  <ModifiedDate>  (100) 
2014-05-02

>  <Parent>  (100) 


>  <OneLetterCode>  (100) 


>  <SubcomponentList>  (100) 


>  <AmbiguousFlag>  (100) 
N

>  <InsertionCode>  (100) 


>  <InstanceId>  (100) 
4CTW_S71_B_1721

>  <ChemCompId>  (100) 
S71

>  <PdbId>  (100) 
4CTW

>  <ResidueNumber>  (100) 
1721

>  <InChI>  (100) 
InChI=1S/C22H28N6/c1-14-5-19(27-21(24)7-14)4-3-16-9-18(13-26-12-16)17(11-23)10-20-6-15(2)8-22(25)28-20/h5-9,12-13,17H,3-4,10-11,23H2,1-2H3,(H2,24,27)(H2,25,28)/t17-/m0/s1

>  <InChIKey>  (100) 
HKLFDCGBVFYQPQ-KRWDZBQOSA-N

>  <SMILES>  (100) 
Cc1cc(nc(c1)N)CCc2cc(cnc2)[C@@H](Cc3cc(cc(n3)N)C)CN

>  <MissingHeavyAtoms>  (100) 
0

>  <Model>  (100) 
1

>  <AltIds>  (100) 


>  <pKI>  (100) 
7.62

>  <ChemblID>  (100) 
CHEMBL3262026

>  <standardized_canonical_smiles>  (100) 
Cc1cc(N)nc(CCc2cncc([C@H](CN)Cc3cc(C)cc(N)n3)c2)c1

$$$$
4UPP_PQW_B_800
     RDKit          3D

 36 40  0  0  0  0  0  0  0  0999 V2000
    9.9610    0.4600   60.9860 S   0  0  0  0  0  0  0  0  0  0  0  0
   10.2010    1.4680   62.3800 C   0  0  0  0  0  0  0  0  0  0  0  0
   11.6060    1.6800   62.5000 C   0  0  0  0  0  0  0  0  0  0  0  0
   12.4080    1.0880   61.5170 C   0  0  0  0  0  0  0  0  0  0  0  0
   11.6630    0.3510   60.6220 C   0  0  0  0  0  0  0  0  0  0  0  0
   12.0270   -0.4300   59.4020 C   0  0  0  0  0  0  0  0  0  0  0  0
   13.0920   -0.0290   58.7230 N   0  0  0  0  0  0  0  0  0  0  0  0
   11.3550   -1.4280   58.9690 N   0  0  0  0  0  0  0  0  0  0  0  0
   16.5300    5.5990   56.2000 N   0  0  0  0  0  0  0  0  0  0  0  0
   13.5210    1.2670   58.6120 C   0  0  0  0  0  0  0  0  0  0  0  0
   14.8920    1.5020   58.6030 C   0  0  0  0  0  0  0  0  0  0  0  0
   15.3540    2.8070   58.4350 C   0  0  0  0  0  0  0  0  0  0  0  0
   14.4630    3.8770   58.3050 C   0  0  0  0  0  0  0  0  0  0  0  0
   13.0840    3.6450   58.3170 C   0  0  0  0  0  0  0  0  0  0  0  0
   12.6410    2.3440   58.4620 C   0  0  0  0  0  0  0  0  0  0  0  0
   14.9300    5.1650   58.2010 O   0  0  0  0  0  0  0  0  0  0  0  0
   16.2740    5.4890   58.5870 C   0  0  0  0  0  0  0  0  0  0  0  0
   17.2130    5.2660   57.4300 C   0  0  0  0  0  0  0  0  0  0  0  0
   26.1560    6.5190   52.6830 S   0  0  0  0  0  0  0  0  0  0  0  0
   26.6150    4.8830   53.0570 C   0  0  0  0  0  0  0  0  0  0  0  0
   25.8080    4.4730   54.1210 C   0  0  0  0  0  0  0  0  0  0  0  0
   24.8820    5.4190   54.5940 C   0  0  0  0  0  0  0  0  0  0  0  0
   24.9260    6.6290   53.8990 C   0  0  0  0  0  0  0  0  0  0  0  0
   24.1850    7.9270   54.0180 C   0  0  0  0  0  0  0  0  0  0  0  0
   23.2380    8.2950   53.1360 N   0  0  0  0  0  0  0  0  0  0  0  0
   24.4810    8.7330   55.0400 N   0  0  0  0  0  0  0  0  0  0  0  0
   18.4030    6.2200   57.5350 C   0  0  0  0  0  0  0  0  0  0  0  0
   21.9820    8.6230   53.5440 C   0  0  0  0  0  0  0  0  0  0  0  0
   21.3700    9.8550   53.2450 C   0  0  0  0  0  0  0  0  0  0  0  0
   20.0720   10.1290   53.6970 C   0  0  0  0  0  0  0  0  0  0  0  0
   19.3900    9.1720   54.4550 C   0  0  0  0  0  0  0  0  0  0  0  0
   20.0160    7.9440   54.7440 C   0  0  0  0  0  0  0  0  0  0  0  0
   21.2950    7.6770   54.2880 C   0  0  0  0  0  0  0  0  0  0  0  0
   19.4480    6.9350   55.4750 O   0  0  0  0  0  0  0  0  0  0  0  0
   18.3290    7.1510   56.3220 C   0  0  0  0  0  0  0  0  0  0  0  0
   17.1370    6.7060   55.4930 C   0  0  0  0  0  0  0  0  0  0  0  0
  2  1  1  0
  5  1  1  0
  3  2  2  0
  4  3  1  0
  5  4  2  0
  6  5  1  0
  7  6  2  0
  8  6  1  0
 10  7  1  0
 18  9  1  0
 36  9  1  0
 11 10  2  0
 15 10  1  0
 12 11  1  0
 13 12  2  0
 14 13  1  0
 16 13  1  0
 15 14  2  0
 17 16  1  0
 18 17  1  0
 27 18  1  0
 20 19  1  0
 23 19  1  0
 21 20  2  0
 22 21  1  0
 23 22  2  0
 24 23  1  0
 25 24  1  0
 26 24  2  0
 28 25  1  0
 35 27  1  0
 29 28  2  0
 33 28  1  0
 30 29  1  0
 31 30  2  0
 32 31  1  0
 33 32  2  0
 34 32  1  0
 35 34  1  0
 36 35  1  0
A    1
S01
A    2
C02
A    3
C03
A    4
C04
A    5
C05
A    6
C06
A    7
N07
A    8
N08
A    9
N1'
A   10
C11
A   11
C12
A   12
C13
A   13
C14
A   14
C15
A   15
C16
A   16
O17
A   17
C18
A   18
C2'
A   19
S21
A   20
C22
A   21
C23
A   22
C24
A   23
C25
A   24
C26
A   25
N27
A   26
N28
A   27
C3'
A   28
C31
A   29
C32
A   30
C33
A   31
C34
A   32
C35
A   33
C36
A   34
O37
A   35
C4'
A   36
C5'
M  END
>  <Id>  (101) 
4UPP_PQW_B_800

>  <ChainId>  (101) 
B

>  <AsymId>  (101) 
J

>  <SeqNum>  (101) 
800

>  <Name>  (101) 
N'-[4-[[(2S,4R)-4-[3-[(C-thiophen-2-ylcarbonimidoyl)amino]phenoxy]pyrrolidin-2-yl]methoxy]phenyl]thiophene-2-carboximidamide

>  <SystematicName>  (101) 
N'-[4-[[(2S,4R)-4-[3-[(C-thiophen-2-ylcarbonimidoyl)amino]phenoxy]pyrrolidin-2-yl]methoxy]phenyl]thiophene-2-carboximidamide

>  <Synonyms>  (101) 


>  <Type>  (101) 
NON-POLYMER

>  <Formula>  (101) 
C27 H27 N5 O2 S2

>  <ObservedFormula>  (101) 
S2 C27 N5 O2

>  <MolecularWeight>  (101) 
517.666

>  <ModifiedDate>  (101) 
2014-08-15

>  <Parent>  (101) 


>  <OneLetterCode>  (101) 


>  <SubcomponentList>  (101) 


>  <AmbiguousFlag>  (101) 
N

>  <InsertionCode>  (101) 


>  <InstanceId>  (101) 
4UPP_PQW_B_800

>  <ChemCompId>  (101) 
PQW

>  <PdbId>  (101) 
4UPP

>  <ResidueNumber>  (101) 
800

>  <InChI>  (101) 
InChI=1S/C27H27N5O2S2/c28-26(24-6-2-12-35-24)31-18-8-10-21(11-9-18)33-17-20-15-23(16-30-20)34-22-5-1-4-19(14-22)32-27(29)25-7-3-13-36-25/h1-14,20,23,30H,15-17H2,(H2,28,31)(H2,29,32)/t20-,23+/m0/s1

>  <InChIKey>  (101) 
MVLJJSCAHWVTFO-NZQKXSOJSA-N

>  <SMILES>  (101) 
[H]/N=C(/c1cccs1)\Nc2cccc(c2)O[C@@H]3C[C@H](NC3)COc4ccc(cc4)N=C(c5cccs5)N

>  <MissingHeavyAtoms>  (101) 
0

>  <Model>  (101) 
1

>  <AltIds>  (101) 


>  <pKI>  (101) 
7.57

>  <ChemblID>  (101) 
CHEMBL3327299

>  <standardized_canonical_smiles>  (101) 
N=C(Nc1ccc(OC[C@@H]2C[C@@H](Oc3cccc(NC(=N)c4cccs4)c3)CN2)cc1)c1cccs1

$$$$
4UPO_6E5_B_800
     RDKit          3D

 38 42  0  0  0  0  0  0  0  0999 V2000
    9.9830    0.4040   60.8100 S   0  0  0  0  0  0  0  0  0  0  0  0
   10.1960    1.4090   62.1990 C   0  0  0  0  0  0  0  0  0  0  0  0
   11.6170    1.6550   62.3080 C   0  0  0  0  0  0  0  0  0  0  0  0
   12.4160    1.1260   61.3070 C   0  0  0  0  0  0  0  0  0  0  0  0
   11.6750    0.3930   60.4040 C   0  0  0  0  0  0  0  0  0  0  0  0
   12.0100   -0.3580   59.1660 C   0  0  0  0  0  0  0  0  0  0  0  0
   13.0620    0.0670   58.4410 N   0  0  0  0  0  0  0  0  0  0  0  0
   11.3050   -1.4210   58.7870 N   0  0  0  0  0  0  0  0  0  0  0  0
   17.7630    5.2310   55.3040 N   0  0  0  0  0  0  0  0  0  0  0  0
   13.4570    1.3830   58.3420 C   0  0  0  0  0  0  0  0  0  0  0  0
   12.6010    2.4880   58.3010 C   0  0  0  0  0  0  0  0  0  0  0  0
   13.0610    3.7980   58.1700 C   0  0  0  0  0  0  0  0  0  0  0  0
   14.4670    4.0390   58.0640 C   0  0  0  0  0  0  0  0  0  0  0  0
   15.3180    2.9300   58.0800 C   0  0  0  0  0  0  0  0  0  0  0  0
   14.8300    1.6360   58.2360 C   0  0  0  0  0  0  0  0  0  0  0  0
   16.8490    3.0960   58.0020 C   0  0  0  0  0  0  0  0  0  0  0  0
   17.1190    4.4150   57.5780 O   0  0  0  0  0  0  0  0  0  0  0  0
   18.5360    4.5970   57.4660 C   0  0  0  0  0  0  0  0  0  0  0  0
   18.9100    4.6800   55.9930 C   0  0  0  0  0  0  0  0  0  0  0  0
   20.8770   15.8580   57.2790 S   0  0  0  0  0  0  0  0  0  0  0  0
   21.7980   17.1300   56.5260 C   0  0  0  0  0  0  0  0  0  0  0  0
   23.0430   16.5980   56.1840 C   0  0  0  0  0  0  0  0  0  0  0  0
   23.2370   15.2490   56.5180 C   0  0  0  0  0  0  0  0  0  0  0  0
   22.1260   14.6690   57.1400 C   0  0  0  0  0  0  0  0  0  0  0  0
   21.8140   13.3120   57.6850 C   0  0  0  0  0  0  0  0  0  0  0  0
   21.1790   12.4150   56.9390 N   0  0  0  0  0  0  0  0  0  0  0  0
   22.1730   12.9890   58.9230 N   0  0  0  0  0  0  0  0  0  0  0  0
   20.0440    5.6800   55.7480 C   0  0  0  0  0  0  0  0  0  0  0  0
   21.0680   10.5180   55.5340 C   0  0  0  0  0  0  0  0  0  0  0  0
   21.8290   11.4100   56.2940 C   0  0  0  0  0  0  0  0  0  0  0  0
   23.2230   11.2430   56.3640 C   0  0  0  0  0  0  0  0  0  0  0  0
   23.8460   10.1920   55.6820 C   0  0  0  0  0  0  0  0  0  0  0  0
   23.0730    9.3040   54.9260 C   0  0  0  0  0  0  0  0  0  0  0  0
   21.6840    9.4700   54.8490 C   0  0  0  0  0  0  0  0  0  0  0  0
   20.8250    8.5210   54.0450 C   0  0  0  0  0  0  0  0  0  0  0  0
   19.8440    7.9910   54.9360 O   0  0  0  0  0  0  0  0  0  0  0  0
   19.5460    6.6330   54.6580 C   0  0  0  0  0  0  0  0  0  0  0  0
   18.0360    6.5040   54.6720 C   0  0  0  0  0  0  0  0  0  0  0  0
  2  1  1  0
  5  1  1  0
  3  2  2  0
  4  3  1  0
  5  4  2  0
  6  5  1  0
  7  6  1  0
  8  6  2  0
 10  7  1  0
 19  9  1  0
 38  9  1  0
 11 10  2  0
 15 10  1  0
 12 11  1  0
 13 12  2  0
 14 13  1  0
 15 14  2  0
 16 14  1  0
 17 16  1  0
 18 17  1  0
 19 18  1  0
 28 19  1  0
 21 20  1  0
 24 20  1  0
 22 21  2  0
 23 22  1  0
 24 23  2  0
 25 24  1  0
 26 25  1  0
 27 25  2  0
 30 26  1  0
 37 28  1  0
 30 29  2  0
 34 29  1  0
 31 30  1  0
 32 31  2  0
 33 32  1  0
 34 33  2  0
 35 34  1  0
 36 35  1  0
 37 36  1  0
 38 37  1  0
A    1
S01
A    2
C02
A    3
C03
A    4
C04
A    5
C05
A    6
C06
A    7
N07
A    8
N08
A    9
N1'
A   10
C11
A   11
C12
A   12
C13
A   13
C14
A   14
C15
A   15
C16
A   16
C17
A   17
O18
A   18
C19
A   19
C2'
A   20
S21
A   21
C22
A   22
C23
A   23
C24
A   24
C25
A   25
C26
A   26
N27
A   27
N28
A   28
C3'
A   29
C30
A   30
C31
A   31
C32
A   32
C33
A   33
C34
A   34
C35
A   35
C37
A   36
O38
A   37
C4'
A   38
C5'
M  END
>  <Id>  (102) 
4UPO_6E5_B_800

>  <ChainId>  (102) 
B

>  <AsymId>  (102) 
J

>  <SeqNum>  (102) 
800

>  <Name>  (102) 
N-[3-({[(3S,5S)-5-{[(3-{[(Z)-imino(thiophen-2-yl)methyl]amino}benzyl)oxy]methyl}pyrrolidin-3-yl]oxy}methyl)phenyl]thiophene-2-carboximidamide

>  <SystematicName>  (102) 
N-[3-[[(2S,4S)-4-[[3-[(C-thiophen-2-ylcarbonimidoyl)amino]phenyl]methoxy]pyrrolidin-2-yl]methoxymethyl]phenyl]thiophene-2-carboximidamide

>  <Synonyms>  (102) 


>  <Type>  (102) 
NON-POLYMER

>  <Formula>  (102) 
C29 H31 N5 O2 S2

>  <ObservedFormula>  (102) 
S2 C29 N5 O2

>  <MolecularWeight>  (102) 
545.719

>  <ModifiedDate>  (102) 
2014-08-15

>  <Parent>  (102) 


>  <OneLetterCode>  (102) 


>  <SubcomponentList>  (102) 


>  <AmbiguousFlag>  (102) 
N

>  <InsertionCode>  (102) 


>  <InstanceId>  (102) 
4UPO_6E5_B_800

>  <ChemCompId>  (102) 
6E5

>  <PdbId>  (102) 
4UPO

>  <ResidueNumber>  (102) 
800

>  <InChI>  (102) 
InChI=1S/C29H31N5O2S2/c30-28(26-9-3-11-37-26)33-22-7-1-5-20(13-22)17-35-19-24-15-25(16-32-24)36-18-21-6-2-8-23(14-21)34-29(31)27-10-4-12-38-27/h1-14,24-25,32H,15-19H2,(H2,30,33)(H2,31,34)/t24-,25-/m0/s1

>  <InChIKey>  (102) 
GPVRORSBZUBDJB-DQEYMECFSA-N

>  <SMILES>  (102) 
[H]/N=C(/c1cccs1)\Nc2cccc(c2)COC[C@@H]3C[C@@H](CN3)OCc4cccc(c4)N/C(=N\[H])/c5cccs5

>  <MissingHeavyAtoms>  (102) 
0

>  <Model>  (102) 
1

>  <AltIds>  (102) 


>  <pKI>  (102) 
7.66

>  <ChemblID>  (102) 
CHEMBL3325614

>  <standardized_canonical_smiles>  (102) 
N=C(Nc1cccc(COC[C@@H]2C[C@H](OCc3cccc(NC(=N)c4cccs4)c3)CN2)c1)c1cccs1

$$$$
4UPN_7LN_B_800
     RDKit          3D

 36 39  0  0  0  0  0  0  0  0999 V2000
   25.3560    7.5140   53.3250 N   0  0  0  0  0  0  0  0  0  0  0  0
   24.1080    7.0440   53.4140 C   0  0  0  0  0  0  0  0  0  0  0  0
   23.7010    6.1230   52.3110 C   0  0  0  0  0  0  0  0  0  0  0  0
   24.9630    5.1170   51.6770 S   0  0  0  0  0  0  0  0  0  0  0  0
   23.9790    4.4150   50.4510 C   0  0  0  0  0  0  0  0  0  0  0  0
   22.7250    4.9860   50.5130 C   0  0  0  0  0  0  0  0  0  0  0  0
   22.5570    5.9510   51.5370 C   0  0  0  0  0  0  0  0  0  0  0  0
   23.4880    7.5400   54.5010 N   0  0  0  0  0  0  0  0  0  0  0  0
   22.2320    8.0980   54.5730 C   0  0  0  0  0  0  0  0  0  0  0  0
   21.0490    7.3550   54.5020 C   0  0  0  0  0  0  0  0  0  0  0  0
   22.1490    9.4870   54.7050 C   0  0  0  0  0  0  0  0  0  0  0  0
   20.9200   10.1320   54.7330 C   0  0  0  0  0  0  0  0  0  0  0  0
   19.7480    9.4040   54.6540 C   0  0  0  0  0  0  0  0  0  0  0  0
   19.8240    8.0250   54.5420 C   0  0  0  0  0  0  0  0  0  0  0  0
   18.5280    7.2730   54.4810 C   0  0  0  0  0  0  0  0  0  0  0  0
   18.4570    6.3670   55.6020 O   0  0  0  0  0  0  0  0  0  0  0  0
   17.9420    5.0510   55.2730 C   0  0  0  0  0  0  0  0  0  0  0  0
   18.6490    4.2720   54.1380 C   0  0  0  0  0  0  0  0  0  0  0  0
   17.9350    3.0920   53.6540 N   0  0  0  0  0  0  0  0  0  0  0  0
   18.0950    4.2470   56.5440 C   0  0  0  0  0  0  0  0  0  0  0  0
   16.8480    4.3470   57.2390 O   0  0  0  0  0  0  0  0  0  0  0  0
   16.6580    3.1710   57.9890 C   0  0  0  0  0  0  0  0  0  0  0  0
   15.1620    2.9060   58.1190 C   0  0  0  0  0  0  0  0  0  0  0  0
   14.2980    3.9810   58.2660 C   0  0  0  0  0  0  0  0  0  0  0  0
   12.8930    3.7460   58.4270 C   0  0  0  0  0  0  0  0  0  0  0  0
   12.4790    2.4230   58.4290 C   0  0  0  0  0  0  0  0  0  0  0  0
   14.7210    1.5820   58.1400 C   0  0  0  0  0  0  0  0  0  0  0  0
   13.3330    1.3370   58.2820 C   0  0  0  0  0  0  0  0  0  0  0  0
   12.9700    0.0310   58.4440 N   0  0  0  0  0  0  0  0  0  0  0  0
   12.0650   -0.4090   59.2800 C   0  0  0  0  0  0  0  0  0  0  0  0
   11.3620   -1.5150   59.0290 N   0  0  0  0  0  0  0  0  0  0  0  0
   11.7250    0.3850   60.4700 C   0  0  0  0  0  0  0  0  0  0  0  0
   10.0230    0.3750   60.8680 S   0  0  0  0  0  0  0  0  0  0  0  0
   10.3540    1.3810   62.2520 C   0  0  0  0  0  0  0  0  0  0  0  0
   11.8460    1.5710   62.3740 C   0  0  0  0  0  0  0  0  0  0  0  0
   12.5580    1.0190   61.3610 C   0  0  0  0  0  0  0  0  0  0  0  0
  2  1  2  0
  3  2  1  0
  8  2  1  0
  4  3  1  0
  7  3  2  0
  5  4  1  0
  6  5  2  0
  7  6  1  0
  9  8  1  0
 10  9  2  0
 11  9  1  0
 14 10  1  0
 12 11  2  0
 13 12  1  0
 14 13  2  0
 15 14  1  0
 16 15  1  0
 17 16  1  0
 18 17  1  0
 20 17  1  0
 19 18  1  0
 21 20  1  0
 22 21  1  0
 23 22  1  0
 24 23  2  0
 27 23  1  0
 25 24  1  0
 26 25  2  0
 28 26  1  0
 28 27  2  0
 29 28  1  0
 30 29  2  0
 31 30  1  0
 32 30  1  0
 33 32  1  0
 36 32  2  0
 34 33  1  0
 35 34  2  0
 36 35  1  0
A    1
N26
A    2
C26
A    3
C25
A    4
S21
A    5
C22
A    6
C23
A    7
C24
A    8
N27
A    9
C31
A   10
C36
A   11
C32
A   12
C33
A   13
C34
A   14
C35
A   15
C37
A   16
O38
A   17
C20
A   18
C21
A   19
N22
A   20
C19
A   21
O18
A   22
C17
A   23
C15
A   24
C14
A   25
C13
A   26
C12
A   27
C16
A   28
C11
A   29
N07
A   30
C06
A   31
N06
A   32
C05
A   33
S01
A   34
C02
A   35
C03
A   36
C04
M  END
>  <Id>  (103) 
4UPN_7LN_B_800

>  <ChainId>  (103) 
B

>  <AsymId>  (103) 
J

>  <SeqNum>  (103) 
800

>  <Name>  (103) 
N,N''-{[(2S)-3-aminopropane-1,2-diyl]bis(oxymethanediylbenzene-3,1-diyl)}dithiophene-2-carboximidamide

>  <SystematicName>  (103) 
N'-[3-[[(2S)-3-azanyl-2-[[3-[(C-thiophen-2-ylcarbonimidoyl)amino]phenyl]methoxy]propoxy]methyl]phenyl]thiophene-2-carboximidamide

>  <Synonyms>  (103) 


>  <Type>  (103) 
non-polymer

>  <Formula>  (103) 
C27 H29 N5 O2 S2

>  <ObservedFormula>  (103) 
C27 S2 N5 O2

>  <MolecularWeight>  (103) 
519.681

>  <ModifiedDate>  (103) 
2014-08-15

>  <Parent>  (103) 


>  <OneLetterCode>  (103) 


>  <SubcomponentList>  (103) 


>  <AmbiguousFlag>  (103) 
N

>  <InsertionCode>  (103) 


>  <InstanceId>  (103) 
4UPN_7LN_B_800

>  <ChemCompId>  (103) 
7LN

>  <PdbId>  (103) 
4UPN

>  <ResidueNumber>  (103) 
800

>  <InChI>  (103) 
InChI=1S/C27H29N5O2S2/c28-15-23(34-17-20-6-2-8-22(14-20)32-27(30)25-10-4-12-36-25)18-33-16-19-5-1-7-21(13-19)31-26(29)24-9-3-11-35-24/h1-14,23H,15-18,28H2,(H2,29,31)(H2,30,32)/t23-/m0/s1

>  <InChIKey>  (103) 
KEUPBLDQGUHFOB-QHCPKHFHSA-N

>  <SMILES>  (103) 
c1cc(cc(c1)NC(=N)c2cccs2)CO[C@@H](CN)COCc3cccc(c3)/N=C(\c4cccs4)/N

>  <MissingHeavyAtoms>  (103) 
0

>  <Model>  (103) 
1

>  <AltIds>  (103) 


>  <pKI>  (103) 
7.83

>  <ChemblID>  (103) 
CHEMBL3325610

>  <standardized_canonical_smiles>  (103) 
N=C(Nc1cccc(COC[C@H](CN)OCc2cccc(NC(=N)c3cccs3)c2)c1)c1cccs1

$$$$
4UPM_I5U_B_800
     RDKit          3D

 36 39  0  0  0  0  0  0  0  0999 V2000
   11.4640   -1.5290   58.9230 N   0  0  0  0  0  0  0  0  0  0  0  0
   12.0130   -0.3760   59.2840 C   0  0  0  0  0  0  0  0  0  0  0  0
   11.5540    0.3840   60.4640 C   0  0  0  0  0  0  0  0  0  0  0  0
    9.8910    0.2700   60.9070 S   0  0  0  0  0  0  0  0  0  0  0  0
   10.1800    1.2560   62.3050 C   0  0  0  0  0  0  0  0  0  0  0  0
   11.5490    1.5900   62.4220 C   0  0  0  0  0  0  0  0  0  0  0  0
   12.3300    1.0670   61.3930 C   0  0  0  0  0  0  0  0  0  0  0  0
   13.0230    0.0730   58.5760 N   0  0  0  0  0  0  0  0  0  0  0  0
   13.3900    1.3790   58.4310 C   0  0  0  0  0  0  0  0  0  0  0  0
   12.5190    2.4770   58.5050 C   0  0  0  0  0  0  0  0  0  0  0  0
   13.0270    3.7750   58.4570 C   0  0  0  0  0  0  0  0  0  0  0  0
   14.4030    4.0210   58.3380 C   0  0  0  0  0  0  0  0  0  0  0  0
   14.7560    1.6300   58.3190 C   0  0  0  0  0  0  0  0  0  0  0  0
   15.2480    2.9330   58.2430 C   0  0  0  0  0  0  0  0  0  0  0  0
   16.7490    3.0500   58.1400 C   0  0  0  0  0  0  0  0  0  0  0  0
   17.2090    4.3360   57.8000 O   0  0  0  0  0  0  0  0  0  0  0  0
   17.9220    4.3690   56.5400 C   0  0  0  0  0  0  0  0  0  0  0  0
   19.1060    3.3850   56.4080 C   0  0  0  0  0  0  0  0  0  0  0  0
   20.2510    3.7820   57.2070 N   0  0  0  0  0  0  0  0  0  0  0  0
   18.4650    5.7870   56.3820 C   0  0  0  0  0  0  0  0  0  0  0  0
   17.9310    6.3340   55.1950 O   0  0  0  0  0  0  0  0  0  0  0  0
   18.1030    7.7470   55.0430 C   0  0  0  0  0  0  0  0  0  0  0  0
   19.5430    8.0780   54.7900 C   0  0  0  0  0  0  0  0  0  0  0  0
   20.0460    9.2950   55.2220 C   0  0  0  0  0  0  0  0  0  0  0  0
   21.3840    9.5820   54.9900 C   0  0  0  0  0  0  0  0  0  0  0  0
   22.1990    8.6570   54.3290 C   0  0  0  0  0  0  0  0  0  0  0  0
   20.3510    7.1590   54.1330 C   0  0  0  0  0  0  0  0  0  0  0  0
   21.6980    7.4200   53.8970 C   0  0  0  0  0  0  0  0  0  0  0  0
   22.3810    6.4110   53.2630 N   0  0  0  0  0  0  0  0  0  0  0  0
   23.6690    6.3470   52.8550 C   0  0  0  0  0  0  0  0  0  0  0  0
   24.6500    7.1930   53.1850 N   0  0  0  0  0  0  0  0  0  0  0  0
   24.0010    5.2850   51.8450 C   0  0  0  0  0  0  0  0  0  0  0  0
   25.4750    4.3990   52.0200 S   0  0  0  0  0  0  0  0  0  0  0  0
   25.1900    3.4510   50.5940 C   0  0  0  0  0  0  0  0  0  0  0  0
   23.9910    3.8210   49.9910 C   0  0  0  0  0  0  0  0  0  0  0  0
   23.3300    4.8500   50.6940 C   0  0  0  0  0  0  0  0  0  0  0  0
  2  1  1  0
  3  2  1  0
  8  2  2  0
  4  3  1  0
  7  3  2  0
  5  4  1  0
  6  5  2  0
  7  6  1  0
  9  8  1  0
 10  9  2  0
 13  9  1  0
 11 10  1  0
 12 11  2  0
 14 12  1  0
 14 13  2  0
 15 14  1  0
 16 15  1  0
 17 16  1  0
 18 17  1  0
 20 17  1  0
 19 18  1  0
 21 20  1  0
 22 21  1  0
 23 22  1  0
 24 23  2  0
 27 23  1  0
 25 24  1  0
 26 25  2  0
 28 26  1  0
 28 27  2  0
 29 28  1  0
 30 29  1  0
 31 30  2  0
 32 30  1  0
 33 32  1  0
 36 32  2  0
 34 33  1  0
 35 34  2  0
 36 35  1  0
A    1
N26
A    2
C26
A    3
C25
A    4
S21
A    5
C22
A    6
C23
A    7
C24
A    8
N27
A    9
C31
A   10
C32
A   11
C33
A   12
C34
A   13
C36
A   14
C35
A   15
C37
A   16
O38
A   17
C20
A   18
C21
A   19
N22
A   20
C19
A   21
O18
A   22
C17
A   23
C15
A   24
C14
A   25
C13
A   26
C12
A   27
C16
A   28
C11
A   29
N07
A   30
C06
A   31
N06
A   32
C05
A   33
S01
A   34
C02
A   35
C03
A   36
C04
M  END
>  <Id>  (104) 
4UPM_I5U_B_800

>  <ChainId>  (104) 
B

>  <AsymId>  (104) 
J

>  <SeqNum>  (104) 
800

>  <Name>  (104) 
N',N'-{[(2R)-3-aminopropane-1,2-diyl]bis(oxymethanediylbenzene-3,1-diyl)}dithiophene-2-carboximidamide

>  <SystematicName>  (104) 
N'-[3-[[(2R)-1-azanyl-3-[[3-[(C-thiophen-2-ylcarbonimidoyl)amino]phenyl]methoxy]propan-2-yl]oxymethyl]phenyl]thiophene-2-carboximidamide

>  <Synonyms>  (104) 


>  <Type>  (104) 
non-polymer

>  <Formula>  (104) 
C27 H29 N5 O2 S2

>  <ObservedFormula>  (104) 
C27 S2 N5 O2

>  <MolecularWeight>  (104) 
519.681

>  <ModifiedDate>  (104) 
2014-08-15

>  <Parent>  (104) 


>  <OneLetterCode>  (104) 


>  <SubcomponentList>  (104) 


>  <AmbiguousFlag>  (104) 
N

>  <InsertionCode>  (104) 


>  <InstanceId>  (104) 
4UPM_I5U_B_800

>  <ChemCompId>  (104) 
I5U

>  <PdbId>  (104) 
4UPM

>  <ResidueNumber>  (104) 
800

>  <InChI>  (104) 
InChI=1S/C27H29N5O2S2/c28-15-23(34-17-20-6-2-8-22(14-20)32-27(30)25-10-4-12-36-25)18-33-16-19-5-1-7-21(13-19)31-26(29)24-9-3-11-35-24/h1-14,23H,15-18,28H2,(H2,29,31)(H2,30,32)/t23-/m1/s1

>  <InChIKey>  (104) 
KEUPBLDQGUHFOB-HSZRJFAPSA-N

>  <SMILES>  (104) 
[H]/N=C(\c1cccs1)/Nc2cccc(c2)COC[C@@H](CN)OCc3cccc(c3)/N=C(\c4cccs4)/N

>  <MissingHeavyAtoms>  (104) 
0

>  <Model>  (104) 
1

>  <AltIds>  (104) 


>  <pKI>  (104) 
7.23

>  <ChemblID>  (104) 
CHEMBL3325609

>  <standardized_canonical_smiles>  (104) 
N=C(Nc1cccc(COC[C@@H](CN)OCc2cccc(NC(=N)c3cccs3)c2)c1)c1cccs1

$$$$
4D2Z_K9L_B_800
     RDKit          3D

 25 28  0  0  0  0  0  0  0  0999 V2000
   10.3870    2.0410   59.2650 N   0  0  0  0  0  0  0  0  0  0  0  0
   11.6210    2.0850   58.7410 C   0  0  0  0  0  0  0  0  0  0  0  0
   12.3440    1.4780   59.6930 N   0  0  0  0  0  0  0  0  0  0  0  0
   11.6760    1.0830   60.7800 C   0  0  0  0  0  0  0  0  0  0  0  0
   10.3740    1.4560   60.4870 C   0  0  0  0  0  0  0  0  0  0  0  0
   20.2140    7.4900   54.4950 C   0  0  0  0  0  0  0  0  0  0  0  0
   14.2970    2.0540   58.6090 N   0  0  0  0  0  0  0  0  0  0  0  0
   13.6700    1.3470   59.5810 C   0  0  0  0  0  0  0  0  0  0  0  0
   14.3670    0.5670   60.4450 N   0  0  0  0  0  0  0  0  0  0  0  0
   15.7000    0.4620   60.3380 C   0  0  0  0  0  0  0  0  0  0  0  0
   16.3730    1.1660   59.3420 C   0  0  0  0  0  0  0  0  0  0  0  0
   15.6350    1.9670   58.4670 C   0  0  0  0  0  0  0  0  0  0  0  0
   16.3180    2.7650   57.3820 C   0  0  0  0  0  0  0  0  0  0  0  0
   15.7670    4.1850   57.3550 C   0  0  0  0  0  0  0  0  0  0  0  0
   16.3020    4.9020   56.1760 N   0  0  0  0  0  0  0  0  0  0  0  0
   19.4790    8.6240   54.1500 C   0  0  0  0  0  0  0  0  0  0  0  0
   17.7440    5.1770   56.3500 C   0  0  0  0  0  0  0  0  0  0  0  0
   18.5250    4.3540   55.3300 C   0  0  0  0  0  0  0  0  0  0  0  0
   18.3440    5.8500   55.1130 C   0  0  0  0  0  0  0  0  0  0  0  0
   19.6780    6.4790   55.4880 C   0  0  0  0  0  0  0  0  0  0  0  0
   20.0130    9.5490   53.2510 C   0  0  0  0  0  0  0  0  0  0  0  0
   21.2770    9.3450   52.7030 C   0  0  0  0  0  0  0  0  0  0  0  0
   22.0170    8.2200   53.0550 C   0  0  0  0  0  0  0  0  0  0  0  0
   21.4860    7.3010   53.9540 C   0  0  0  0  0  0  0  0  0  0  0  0
   19.3090   10.6390   52.8970 F   0  0  0  0  0  0  0  0  0  0  0  0
  2  1  2  0
  5  1  1  0
  3  2  1  0
  4  3  1  0
  8  3  1  0
  5  4  2  0
 16  6  2  0
 20  6  1  0
 24  6  1  0
  8  7  2  0
 12  7  1  0
  9  8  1  0
 10  9  2  0
 11 10  1  0
 12 11  2  0
 13 12  1  0
 14 13  1  0
 15 14  1  0
 17 15  1  0
 21 16  1  0
 18 17  1  0
 19 17  1  0
 19 18  1  0
 20 19  1  0
 22 21  2  0
 25 21  1  0
 23 22  1  0
 24 23  2  0
A    1
N01
A    2
C02
A    3
N03
A    4
C04
A    5
C05
A    6
C1'
A    7
N11
A    8
C12
A    9
N13
A   10
C14
A   11
C15
A   12
C16
A   13
C17
A   14
C18
A   15
N19
A   16
C2'
A   17
C21
A   18
C22
A   19
C23
A   20
C24
A   21
C3'
A   22
C4'
A   23
C5'
A   24
C6'
A   25
F7'
M  END
>  <Id>  (105) 
4D2Z_K9L_B_800

>  <ChainId>  (105) 
B

>  <AsymId>  (105) 
J

>  <SeqNum>  (105) 
800

>  <Name>  (105) 
(1S,2S)-2-(3-fluorobenzyl)-N-{2-[2-(1H-imidazol-1-yl)pyrimidin-4-yl]ethyl}cyclopropanamine

>  <SystematicName>  (105) 
(1S,2S)-2-[(3-fluorophenyl)methyl]-N-[2-(2-imidazol-1-ylpyrimidin-4-yl)ethyl]cyclopropan-1-amine

>  <Synonyms>  (105) 


>  <Type>  (105) 
NON-POLYMER

>  <Formula>  (105) 
C19 H20 F N5

>  <ObservedFormula>  (105) 
C19 F N5

>  <MolecularWeight>  (105) 
337.394

>  <ModifiedDate>  (105) 
2014-12-19

>  <Parent>  (105) 


>  <OneLetterCode>  (105) 


>  <SubcomponentList>  (105) 


>  <AmbiguousFlag>  (105) 
N

>  <InsertionCode>  (105) 


>  <InstanceId>  (105) 
4D2Z_K9L_B_800

>  <ChemCompId>  (105) 
K9L

>  <PdbId>  (105) 
4D2Z

>  <ResidueNumber>  (105) 
800

>  <InChI>  (105) 
InChI=1S/C19H20FN5/c20-16-3-1-2-14(11-16)10-15-12-18(15)22-6-4-17-5-7-23-19(24-17)25-9-8-21-13-25/h1-3,5,7-9,11,13,15,18,22H,4,6,10,12H2/t15-,18-/m0/s1

>  <InChIKey>  (105) 
CYEVFFVOLRMDHH-YJBOKZPZSA-N

>  <SMILES>  (105) 
c1cc(cc(c1)F)C[C@H]2C[C@@H]2NCCc3ccnc(n3)n4ccnc4

>  <MissingHeavyAtoms>  (105) 
0

>  <Model>  (105) 
1

>  <AltIds>  (105) 


>  <pKI>  (105) 
6.82

>  <ChemblID>  (105) 
CHEMBL3407823

>  <standardized_canonical_smiles>  (105) 
Fc1cccc(C[C@H]2C[C@@H]2NCCc2ccnc(-n3ccnc3)n2)c1

$$$$
4D2Y_L5Z_B_800
     RDKit          3D

 25 28  0  0  0  0  0  0  0  0999 V2000
   10.5280    1.9230   59.3410 N   0  0  0  0  0  0  0  0  0  0  0  0
   11.7680    2.0090   58.8260 C   0  0  0  0  0  0  0  0  0  0  0  0
   12.5000    1.3850   59.7640 N   0  0  0  0  0  0  0  0  0  0  0  0
   11.8330    0.9450   60.8360 C   0  0  0  0  0  0  0  0  0  0  0  0
   10.5300    1.2960   60.5470 C   0  0  0  0  0  0  0  0  0  0  0  0
   19.8670    7.5260   53.9460 C   0  0  0  0  0  0  0  0  0  0  0  0
   14.4240    1.9870   58.6320 N   0  0  0  0  0  0  0  0  0  0  0  0
   13.8270    1.2840   59.6360 C   0  0  0  0  0  0  0  0  0  0  0  0
   14.5510    0.5450   60.5090 N   0  0  0  0  0  0  0  0  0  0  0  0
   15.8820    0.4810   60.3860 C   0  0  0  0  0  0  0  0  0  0  0  0
   16.5180    1.1780   59.3580 C   0  0  0  0  0  0  0  0  0  0  0  0
   15.7660    1.9430   58.4740 C   0  0  0  0  0  0  0  0  0  0  0  0
   16.4320    2.7310   57.3580 C   0  0  0  0  0  0  0  0  0  0  0  0
   16.0810    4.2040   57.5290 C   0  0  0  0  0  0  0  0  0  0  0  0
   16.3520    4.9430   56.2830 N   0  0  0  0  0  0  0  0  0  0  0  0
   18.9540    8.5500   53.7000 C   0  0  0  0  0  0  0  0  0  0  0  0
   17.7910    4.9790   55.9340 C   0  0  0  0  0  0  0  0  0  0  0  0
   18.4680    6.1450   56.6550 C   0  0  0  0  0  0  0  0  0  0  0  0
   18.1130    6.2680   55.1750 C   0  0  0  0  0  0  0  0  0  0  0  0
   19.3840    6.1430   54.3370 C   0  0  0  0  0  0  0  0  0  0  0  0
   19.4030    9.8210   53.3360 C   0  0  0  0  0  0  0  0  0  0  0  0
   20.7680   10.0760   53.2240 C   0  0  0  0  0  0  0  0  0  0  0  0
   21.6840    9.0600   53.4740 C   0  0  0  0  0  0  0  0  0  0  0  0
   21.2310    7.7900   53.8300 C   0  0  0  0  0  0  0  0  0  0  0  0
   18.5130   10.8030   53.0940 F   0  0  0  0  0  0  0  0  0  0  0  0
  2  1  2  0
  5  1  1  0
  3  2  1  0
  4  3  1  0
  8  3  1  0
  5  4  2  0
 16  6  2  0
 20  6  1  0
 24  6  1  0
  8  7  2  0
 12  7  1  0
  9  8  1  0
 10  9  2  0
 11 10  1  0
 12 11  2  0
 13 12  1  0
 14 13  1  0
 15 14  1  0
 17 15  1  0
 21 16  1  0
 18 17  1  0
 19 17  1  0
 19 18  1  0
 20 19  1  0
 22 21  2  0
 25 21  1  0
 23 22  1  0
 24 23  2  0
A    1
N01
A    2
C02
A    3
N03
A    4
C04
A    5
C05
A    6
C1'
A    7
N11
A    8
C12
A    9
N13
A   10
C14
A   11
C15
A   12
C16
A   13
C17
A   14
C18
A   15
N19
A   16
C2'
A   17
C21
A   18
C22
A   19
C23
A   20
C24
A   21
C3'
A   22
C4'
A   23
C5'
A   24
C6'
A   25
F7'
M  END
>  <Id>  (106) 
4D2Y_L5Z_B_800

>  <ChainId>  (106) 
B

>  <AsymId>  (106) 
J

>  <SeqNum>  (106) 
800

>  <Name>  (106) 
(1R,2R)-2-(3-fluorobenzyl)-N-{2-[2-(1H-imidazol-1-yl)pyrimidin-4-yl]ethyl}cyclopropanamine

>  <SystematicName>  (106) 
(1R,2R)-2-[(3-fluorophenyl)methyl]-N-[2-(2-imidazol-1-ylpyrimidin-4-yl)ethyl]cyclopropan-1-amine

>  <Synonyms>  (106) 


>  <Type>  (106) 
NON-POLYMER

>  <Formula>  (106) 
C19 H20 F N5

>  <ObservedFormula>  (106) 
C19 F N5

>  <MolecularWeight>  (106) 
337.394

>  <ModifiedDate>  (106) 
2014-12-19

>  <Parent>  (106) 


>  <OneLetterCode>  (106) 


>  <SubcomponentList>  (106) 


>  <AmbiguousFlag>  (106) 
N

>  <InsertionCode>  (106) 


>  <InstanceId>  (106) 
4D2Y_L5Z_B_800

>  <ChemCompId>  (106) 
L5Z

>  <PdbId>  (106) 
4D2Y

>  <ResidueNumber>  (106) 
800

>  <InChI>  (106) 
InChI=1S/C19H20FN5/c20-16-3-1-2-14(11-16)10-15-12-18(15)22-6-4-17-5-7-23-19(24-17)25-9-8-21-13-25/h1-3,5,7-9,11,13,15,18,22H,4,6,10,12H2/t15-,18-/m1/s1

>  <InChIKey>  (106) 
CYEVFFVOLRMDHH-CRAIPNDOSA-N

>  <SMILES>  (106) 
c1cc(cc(c1)F)C[C@@H]2C[C@H]2NCCc3ccnc(n3)n4ccnc4

>  <MissingHeavyAtoms>  (106) 
0

>  <Model>  (106) 
1

>  <AltIds>  (106) 


>  <pKI>  (106) 
7.74

>  <ChemblID>  (106) 
CHEMBL3407822

>  <standardized_canonical_smiles>  (106) 
Fc1cccc(C[C@@H]2C[C@H]2NCCc2ccnc(-n3ccnc3)n2)c1

$$$$
4D32_7F5_B_800
     RDKit          3D

 25 27  0  0  0  0  0  0  0  0999 V2000
   10.3560    2.2740   59.3690 N   0  0  0  0  0  0  0  0  0  0  0  0
   11.5010    2.1810   58.6970 C   0  0  0  0  0  0  0  0  0  0  0  0
   12.4230    1.8050   59.5920 N   0  0  0  0  0  0  0  0  0  0  0  0
   11.8470    1.6950   60.8250 C   0  0  0  0  0  0  0  0  0  0  0  0
   10.4870    1.9940   60.6730 C   0  0  0  0  0  0  0  0  0  0  0  0
   12.5010    1.3070   62.1350 C   0  0  0  0  0  0  0  0  0  0  0  0
   19.6840    8.4570   54.6850 C   0  0  0  0  0  0  0  0  0  0  0  0
   14.4560    0.6010   60.0010 N   0  0  0  0  0  0  0  0  0  0  0  0
   13.8300    1.5840   59.3440 C   0  0  0  0  0  0  0  0  0  0  0  0
   14.4810    2.3740   58.4740 N   0  0  0  0  0  0  0  0  0  0  0  0
   15.8160    2.2120   58.2480 C   0  0  0  0  0  0  0  0  0  0  0  0
   16.5220    1.1760   58.9300 C   0  0  0  0  0  0  0  0  0  0  0  0
   15.7750    0.3630   59.8320 C   0  0  0  0  0  0  0  0  0  0  0  0
   16.5480    3.1280   57.2660 C   0  0  0  0  0  0  0  0  0  0  0  0
   16.0040    4.5580   57.3480 C   0  0  0  0  0  0  0  0  0  0  0  0
   16.5250    5.2990   56.2120 N   0  0  0  0  0  0  0  0  0  0  0  0
   18.8150    9.3980   54.1580 C   0  0  0  0  0  0  0  0  0  0  0  0
   17.9600    5.3420   56.2800 C   0  0  0  0  0  0  0  0  0  0  0  0
   18.4950    6.2620   55.1830 C   0  0  0  0  0  0  0  0  0  0  0  0
   19.1830    7.4930   55.7630 C   0  0  0  0  0  0  0  0  0  0  0  0
   19.2730   10.2810   53.1820 C   0  0  0  0  0  0  0  0  0  0  0  0
   20.5900   10.2330   52.7380 C   0  0  0  0  0  0  0  0  0  0  0  0
   21.4640    9.2910   53.2700 C   0  0  0  0  0  0  0  0  0  0  0  0
   21.0080    8.4050   54.2450 C   0  0  0  0  0  0  0  0  0  0  0  0
   18.4210   11.1820   52.6730 F   0  0  0  0  0  0  0  0  0  0  0  0
  2  1  2  0
  5  1  1  0
  3  2  1  0
  4  3  1  0
  9  3  1  0
  5  4  2  0
  6  4  1  0
 17  7  2  0
 20  7  1  0
 24  7  1  0
  9  8  2  0
 13  8  1  0
 10  9  1  0
 11 10  2  0
 12 11  1  0
 14 11  1  0
 13 12  2  0
 15 14  1  0
 16 15  1  0
 18 16  1  0
 21 17  1  0
 19 18  1  0
 20 19  1  0
 22 21  2  0
 25 21  1  0
 23 22  1  0
 24 23  2  0
A    1
N01
A    2
C02
A    3
N03
A    4
C04
A    5
C05
A    6
C06
A    7
C1'
A    8
N11
A    9
C12
A   10
N13
A   11
C14
A   12
C15
A   13
C16
A   14
C17
A   15
C18
A   16
N19
A   17
C2'
A   18
C20
A   19
C21
A   20
C22
A   21
C3'
A   22
C4'
A   23
C5'
A   24
C6'
A   25
F7'
M  END
>  <Id>  (107) 
4D32_7F5_B_800

>  <ChainId>  (107) 
B

>  <AsymId>  (107) 
I

>  <SeqNum>  (107) 
800

>  <Name>  (107) 
3-(3-fluorophenyl)-N-{2-[2-(5-methyl-1H-imidazol-1-yl)pyrimidin-4-yl]ethyl}propan-1-amine

>  <SystematicName>  (107) 
3-(3-fluorophenyl)-N-[2-[2-(5-methylimidazol-1-yl)pyrimidin-4-yl]ethyl]propan-1-amine

>  <Synonyms>  (107) 


>  <Type>  (107) 
NON-POLYMER

>  <Formula>  (107) 
C19 H22 F N5

>  <ObservedFormula>  (107) 
C19 F N5

>  <MolecularWeight>  (107) 
339.41

>  <ModifiedDate>  (107) 
2014-12-19

>  <Parent>  (107) 


>  <OneLetterCode>  (107) 


>  <SubcomponentList>  (107) 


>  <AmbiguousFlag>  (107) 
N

>  <InsertionCode>  (107) 


>  <InstanceId>  (107) 
4D32_7F5_B_800

>  <ChemCompId>  (107) 
7F5

>  <PdbId>  (107) 
4D32

>  <ResidueNumber>  (107) 
800

>  <InChI>  (107) 
InChI=1S/C19H22FN5/c1-15-13-22-14-25(15)19-23-11-8-18(24-19)7-10-21-9-3-5-16-4-2-6-17(20)12-16/h2,4,6,8,11-14,21H,3,5,7,9-10H2,1H3

>  <InChIKey>  (107) 
XNNXUOKGLOGLRV-UHFFFAOYSA-N

>  <SMILES>  (107) 
Cc1cncn1c2nccc(n2)CCNCCCc3cccc(c3)F

>  <MissingHeavyAtoms>  (107) 
0

>  <Model>  (107) 
1

>  <AltIds>  (107) 


>  <pKI>  (107) 
7.22

>  <ChemblID>  (107) 
CHEMBL3407821

>  <standardized_canonical_smiles>  (107) 
Cc1cncn1-c1nccc(CCNCCCc2cccc(F)c2)n1

$$$$
4D31_OLW_B_800
     RDKit          3D

 23 25  0  0  0  0  0  0  0  0999 V2000
   10.5400    1.9790   59.4100 N   0  0  0  0  0  0  0  0  0  0  0  0
   11.7900    2.0320   58.9290 C   0  0  0  0  0  0  0  0  0  0  0  0
   12.4930    1.4870   59.9170 N   0  0  0  0  0  0  0  0  0  0  0  0
   11.7990    1.1100   60.9920 C   0  0  0  0  0  0  0  0  0  0  0  0
   10.5020    1.4370   60.6620 C   0  0  0  0  0  0  0  0  0  0  0  0
   18.4360    6.0120   55.6600 C   0  0  0  0  0  0  0  0  0  0  0  0
   14.5040    0.5520   60.6400 N   0  0  0  0  0  0  0  0  0  0  0  0
   13.8130    1.3580   59.8090 C   0  0  0  0  0  0  0  0  0  0  0  0
   14.4270    2.0810   58.8530 N   0  0  0  0  0  0  0  0  0  0  0  0
   15.7650    1.9970   58.6880 C   0  0  0  0  0  0  0  0  0  0  0  0
   16.4980    1.1720   59.5300 C   0  0  0  0  0  0  0  0  0  0  0  0
   15.8290    0.4480   60.5120 C   0  0  0  0  0  0  0  0  0  0  0  0
   16.4510    2.8170   57.6180 C   0  0  0  0  0  0  0  0  0  0  0  0
   15.7980    4.1910   57.5960 C   0  0  0  0  0  0  0  0  0  0  0  0
   16.4080    5.0200   56.5460 N   0  0  0  0  0  0  0  0  0  0  0  0
   18.6410    7.3460   55.9840 C   0  0  0  0  0  0  0  0  0  0  0  0
   17.8770    5.0520   56.6900 C   0  0  0  0  0  0  0  0  0  0  0  0
   19.1460    8.2250   55.0290 C   0  0  0  0  0  0  0  0  0  0  0  0
   19.4510    7.7840   53.7450 C   0  0  0  0  0  0  0  0  0  0  0  0
   19.2460    6.4520   53.4170 C   0  0  0  0  0  0  0  0  0  0  0  0
   18.7370    5.5780   54.3730 C   0  0  0  0  0  0  0  0  0  0  0  0
   19.3340    9.4560   55.3440 C   0  0  0  0  0  0  0  0  0  0  0  0
   19.5000   10.5630   55.6410 N   0  0  0  0  0  0  0  0  0  0  0  0
  2  1  2  0
  5  1  1  0
  3  2  1  0
  4  3  1  0
  8  3  1  0
  5  4  2  0
 16  6  2  0
 17  6  1  0
 21  6  1  0
  8  7  2  0
 12  7  1  0
  9  8  1  0
 10  9  2  0
 11 10  1  0
 13 10  1  0
 12 11  2  0
 14 13  1  0
 15 14  1  0
 17 15  1  0
 18 16  1  0
 19 18  2  0
 22 18  1  0
 20 19  1  0
 21 20  2  0
 23 22  3  0
A    1
N01
A    2
C02
A    3
N03
A    4
C04
A    5
C05
A    6
C1'
A    7
N11
A    8
C12
A    9
N13
A   10
C14
A   11
C15
A   12
C16
A   13
C17
A   14
C18
A   15
N19
A   16
C2'
A   17
C20
A   18
C3'
A   19
C4'
A   20
C5'
A   21
C6'
A   22
C7'
A   23
N8'
M  END
>  <Id>  (108) 
4D31_OLW_B_800

>  <ChainId>  (108) 
B

>  <AsymId>  (108) 
I

>  <SeqNum>  (108) 
800

>  <Name>  (108) 
3-[({2-[2-(1H-imidazol-1-yl)pyrimidin-4-yl]ethyl}amino)methyl]benzonitrile

>  <SystematicName>  (108) 
3-[[2-(2-imidazol-1-ylpyrimidin-4-yl)ethylamino]methyl]benzenecarbonitrile

>  <Synonyms>  (108) 
2-[2-(1H-imidazol-1-yl)pyrimidin-4-yl]-N-(3-cyanobenzyl)ethan-1-amine

>  <Type>  (108) 
NON-POLYMER

>  <Formula>  (108) 
C17 H16 N6

>  <ObservedFormula>  (108) 
C17 N6

>  <MolecularWeight>  (108) 
304.349

>  <ModifiedDate>  (108) 
2014-12-19

>  <Parent>  (108) 


>  <OneLetterCode>  (108) 


>  <SubcomponentList>  (108) 


>  <AmbiguousFlag>  (108) 
N

>  <InsertionCode>  (108) 


>  <InstanceId>  (108) 
4D31_OLW_B_800

>  <ChemCompId>  (108) 
OLW

>  <PdbId>  (108) 
4D31

>  <ResidueNumber>  (108) 
800

>  <InChI>  (108) 
InChI=1S/C17H16N6/c18-11-14-2-1-3-15(10-14)12-19-6-4-16-5-7-21-17(22-16)23-9-8-20-13-23/h1-3,5,7-10,13,19H,4,6,12H2

>  <InChIKey>  (108) 
ODSRQJVZWSSZFG-UHFFFAOYSA-N

>  <SMILES>  (108) 
c1cc(cc(c1)C#N)CNCCc2ccnc(n2)n3ccnc3

>  <MissingHeavyAtoms>  (108) 
0

>  <Model>  (108) 
1

>  <AltIds>  (108) 


>  <pKI>  (108) 
6.74

>  <ChemblID>  (108) 
CHEMBL3407815

>  <standardized_canonical_smiles>  (108) 
N#Cc1cccc(CNCCc2ccnc(-n3ccnc3)n2)c1

$$$$
4D30_EG8_B_800
     RDKit          3D

 23 25  0  0  0  0  0  0  0  0999 V2000
   10.3810    2.0170   59.2860 N   0  0  0  0  0  0  0  0  0  0  0  0
   11.6200    2.0140   58.7570 C   0  0  0  0  0  0  0  0  0  0  0  0
   12.3530    1.4660   59.7320 N   0  0  0  0  0  0  0  0  0  0  0  0
   11.6920    1.1290   60.8340 C   0  0  0  0  0  0  0  0  0  0  0  0
   10.3890    1.4960   60.5380 C   0  0  0  0  0  0  0  0  0  0  0  0
   22.2540    6.0890   52.3350 N   0  0  0  0  0  0  0  0  0  0  0  0
   14.2960    1.9430   58.5970 N   0  0  0  0  0  0  0  0  0  0  0  0
   13.6730    1.2900   59.5990 C   0  0  0  0  0  0  0  0  0  0  0  0
   14.3690    0.4950   60.4500 N   0  0  0  0  0  0  0  0  0  0  0  0
   15.6910    0.3460   60.3080 C   0  0  0  0  0  0  0  0  0  0  0  0
   16.3570    1.0130   59.2820 C   0  0  0  0  0  0  0  0  0  0  0  0
   15.6230    1.8200   58.4220 C   0  0  0  0  0  0  0  0  0  0  0  0
   16.2790    2.5890   57.3010 C   0  0  0  0  0  0  0  0  0  0  0  0
   15.9600    4.0700   57.4870 C   0  0  0  0  0  0  0  0  0  0  0  0
   16.4770    4.8000   56.3140 N   0  0  0  0  0  0  0  0  0  0  0  0
   21.5560    5.3800   53.2310 C   0  0  0  0  0  0  0  0  0  0  0  0
   17.9000    5.0810   56.5550 C   0  0  0  0  0  0  0  0  0  0  0  0
   18.5060    5.8190   55.3670 C   0  0  0  0  0  0  0  0  0  0  0  0
   19.8640    5.1850   55.0760 C   0  0  0  0  0  0  0  0  0  0  0  0
   20.6390    6.0090   54.0730 C   0  0  0  0  0  0  0  0  0  0  0  0
   20.4410    7.3840   53.9760 C   0  0  0  0  0  0  0  0  0  0  0  0
   21.1770    8.0980   53.0390 C   0  0  0  0  0  0  0  0  0  0  0  0
   22.0790    7.4140   52.2300 C   0  0  0  0  0  0  0  0  0  0  0  0
  2  1  2  0
  5  1  1  0
  3  2  1  0
  4  3  1  0
  8  3  1  0
  5  4  2  0
 16  6  2  0
 23  6  1  0
  8  7  2  0
 12  7  1  0
  9  8  1  0
 10  9  2  0
 11 10  1  0
 12 11  2  0
 13 12  1  0
 14 13  1  0
 15 14  1  0
 17 15  1  0
 20 16  1  0
 18 17  1  0
 19 18  1  0
 20 19  1  0
 21 20  2  0
 22 21  1  0
 23 22  2  0
A    1
N01
A    2
C02
A    3
N03
A    4
C04
A    5
C05
A    6
N1'
A    7
N11
A    8
C12
A    9
N13
A   10
C14
A   11
C15
A   12
C16
A   13
C17
A   14
C18
A   15
N19
A   16
C2'
A   17
C20
A   18
C21
A   19
C22
A   20
C3'
A   21
C4'
A   22
C5'
A   23
C6'
M  END
>  <Id>  (109) 
4D30_EG8_B_800

>  <ChainId>  (109) 
B

>  <AsymId>  (109) 
J

>  <SeqNum>  (109) 
800

>  <Name>  (109) 
N-{2-[2-(1H-imidazol-1-yl)pyrimidin-4-yl]ethyl}-3-(pyridin-3-yl)propan-1-amine

>  <SystematicName>  (109) 
N-[2-(2-imidazol-1-ylpyrimidin-4-yl)ethyl]-3-pyridin-3-yl-propan-1-amine

>  <Synonyms>  (109) 
N-2-(2-(1H-imidazol-1-yl)pyrimidin-4-yl)ethyl-3-(pyridin-3-yl)propan-1-amine

>  <Type>  (109) 
NON-POLYMER

>  <Formula>  (109) 
C17 H20 N6

>  <ObservedFormula>  (109) 
C17 N6

>  <MolecularWeight>  (109) 
308.381

>  <ModifiedDate>  (109) 
2017-01-18

>  <Parent>  (109) 


>  <OneLetterCode>  (109) 


>  <SubcomponentList>  (109) 


>  <AmbiguousFlag>  (109) 
N

>  <InsertionCode>  (109) 


>  <InstanceId>  (109) 
4D30_EG8_B_800

>  <ChemCompId>  (109) 
EG8

>  <PdbId>  (109) 
4D30

>  <ResidueNumber>  (109) 
800

>  <InChI>  (109) 
InChI=1S/C17H20N6/c1(3-15-4-2-8-19-13-15)7-18-9-5-16-6-10-21-17(22-16)23-12-11-20-14-23/h2,4,6,8,10-14,18H,1,3,5,7,9H2

>  <InChIKey>  (109) 
XOWPXRYZDHLBEA-UHFFFAOYSA-N

>  <SMILES>  (109) 
c1cc(cnc1)CCCNCCc2ccnc(n2)n3ccnc3

>  <MissingHeavyAtoms>  (109) 
0

>  <Model>  (109) 
1

>  <AltIds>  (109) 


>  <pKI>  (109) 
7.27

>  <ChemblID>  (109) 
CHEMBL3407814

>  <standardized_canonical_smiles>  (109) 
c1cncc(CCCNCCc2ccnc(-n3ccnc3)n2)c1

$$$$
4V3Z_9HL_B_800
     RDKit          3D

 25 28  0  0  0  0  0  0  0  0999 V2000
   10.4910    2.0030   59.4190 N   0  0  0  0  0  0  0  0  0  0  0  0
   11.6920    2.0680   58.7800 C   0  0  0  0  0  0  0  0  0  0  0  0
   12.5420    1.5370   59.6720 N   0  0  0  0  0  0  0  0  0  0  0  0
   11.9690    1.1560   60.8180 C   0  0  0  0  0  0  0  0  0  0  0  0
   10.6250    1.4510   60.6510 C   0  0  0  0  0  0  0  0  0  0  0  0
   20.3830    7.4950   54.3250 C   0  0  0  0  0  0  0  0  0  0  0  0
   14.5070    2.1300   58.5180 N   0  0  0  0  0  0  0  0  0  0  0  0
   13.8750    1.4180   59.4850 C   0  0  0  0  0  0  0  0  0  0  0  0
   14.5920    0.5980   60.2930 N   0  0  0  0  0  0  0  0  0  0  0  0
   15.9190    0.4660   60.1570 C   0  0  0  0  0  0  0  0  0  0  0  0
   16.5870    1.1870   59.1720 C   0  0  0  0  0  0  0  0  0  0  0  0
   15.8480    2.0280   58.3450 C   0  0  0  0  0  0  0  0  0  0  0  0
   16.5470    2.8340   57.2700 C   0  0  0  0  0  0  0  0  0  0  0  0
   16.0840    4.2800   57.3640 C   0  0  0  0  0  0  0  0  0  0  0  0
   16.5950    5.0150   56.1960 N   0  0  0  0  0  0  0  0  0  0  0  0
   19.5500    8.6080   54.1870 C   0  0  0  0  0  0  0  0  0  0  0  0
   18.0560    5.1790   56.3170 C   0  0  0  0  0  0  0  0  0  0  0  0
   18.4750    6.3800   55.4720 C   0  0  0  0  0  0  0  0  0  0  0  0
   18.5560    5.9160   54.0260 C   0  0  0  0  0  0  0  0  0  0  0  0
   19.8390    6.1980   54.8040 C   0  0  0  0  0  0  0  0  0  0  0  0
   20.0600    9.8260   53.7360 C   0  0  0  0  0  0  0  0  0  0  0  0
   21.4130    9.9270   53.4190 C   0  0  0  0  0  0  0  0  0  0  0  0
   22.2450    8.8160   53.5540 C   0  0  0  0  0  0  0  0  0  0  0  0
   21.7330    7.6000   53.9990 C   0  0  0  0  0  0  0  0  0  0  0  0
   19.2500   10.8960   53.6070 F   0  0  0  0  0  0  0  0  0  0  0  0
  2  1  2  0
  5  1  1  0
  3  2  1  0
  4  3  1  0
  8  3  1  0
  5  4  2  0
 16  6  2  0
 20  6  1  0
 24  6  1  0
  8  7  2  0
 12  7  1  0
  9  8  1  0
 10  9  2  0
 11 10  1  0
 12 11  2  0
 13 12  1  0
 14 13  1  0
 15 14  1  0
 17 15  1  0
 21 16  1  0
 18 17  1  0
 19 18  1  0
 20 18  1  0
 20 19  1  0
 22 21  2  0
 25 21  1  0
 23 22  1  0
 24 23  2  0
A    1
N01
A    2
C02
A    3
N03
A    4
C04
A    5
C05
A    6
C1'
A    7
N11
A    8
C12
A    9
N13
A   10
C14
A   11
C15
A   12
C16
A   13
C17
A   14
C18
A   15
N19
A   16
C2'
A   17
C20
A   18
C21
A   19
C22
A   20
C23
A   21
C3'
A   22
C4'
A   23
C5'
A   24
C6'
A   25
F7'
M  END
>  <Id>  (110) 
4V3Z_9HL_B_800

>  <ChainId>  (110) 
B

>  <AsymId>  (110) 
J

>  <SeqNum>  (110) 
800

>  <Name>  (110) 
N-{[(1R,2R)-2-(3-fluorophenyl)cyclopropyl]methyl}-2-[2-(1H-imidazol-1-yl)pyrimidin-4-yl]ethanamine

>  <SystematicName>  (110) 
N-[[(1R,2R)-2-(3-fluorophenyl)cyclopropyl]methyl]-2-(2-imidazol-1-ylpyrimidin-4-yl)ethanamine

>  <Synonyms>  (110) 
2-(2-(1H-IMIDAZOL-1-YL)PYRIMIDIN-4-YL)-N-(2-(3-FLUOROPHENYL)CYCLOPROPYLMETHYL)ETHAN-1-AMINE

>  <Type>  (110) 
NON-POLYMER

>  <Formula>  (110) 
C19 H20 F N5

>  <ObservedFormula>  (110) 
C19 F N5

>  <MolecularWeight>  (110) 
337.394

>  <ModifiedDate>  (110) 
2014-12-19

>  <Parent>  (110) 


>  <OneLetterCode>  (110) 


>  <SubcomponentList>  (110) 


>  <AmbiguousFlag>  (110) 
N

>  <InsertionCode>  (110) 


>  <InstanceId>  (110) 
4V3Z_9HL_B_800

>  <ChemCompId>  (110) 
9HL

>  <PdbId>  (110) 
4V3Z

>  <ResidueNumber>  (110) 
800

>  <InChI>  (110) 
InChI=1S/C19H20FN5/c20-16-3-1-2-14(10-16)18-11-15(18)12-21-6-4-17-5-7-23-19(24-17)25-9-8-22-13-25/h1-3,5,7-10,13,15,18,21H,4,6,11-12H2/t15-,18-/m0/s1

>  <InChIKey>  (110) 
GLFSJKKKONEYJI-YJBOKZPZSA-N

>  <SMILES>  (110) 
c1cc(cc(c1)F)[C@@H]2C[C@H]2CNCCc3ccnc(n3)n4ccnc4

>  <MissingHeavyAtoms>  (110) 
0

>  <Model>  (110) 
1

>  <AltIds>  (110) 


>  <pKI>  (110) 
7.25

>  <ChemblID>  (110) 
CHEMBL3407812

>  <standardized_canonical_smiles>  (110) 
Fc1cccc(C2CC2CNCCc2ccnc(-n3ccnc3)n2)c1

$$$$
4V3Y_HLW_B_800
     RDKit          3D

 24 26  0  0  0  0  0  0  0  0999 V2000
   10.4100    2.0180   59.4240 N   0  0  0  0  0  0  0  0  0  0  0  0
   11.6190    2.0630   58.9040 C   0  0  0  0  0  0  0  0  0  0  0  0
   12.4430    1.5110   59.7910 N   0  0  0  0  0  0  0  0  0  0  0  0
   11.7480    1.1260   60.8780 C   0  0  0  0  0  0  0  0  0  0  0  0
   10.4060    1.4550   60.6400 C   0  0  0  0  0  0  0  0  0  0  0  0
   19.9580    7.8530   54.4640 C   0  0  0  0  0  0  0  0  0  0  0  0
   14.5030    0.5400   60.4720 N   0  0  0  0  0  0  0  0  0  0  0  0
   13.8470    1.3430   59.6420 C   0  0  0  0  0  0  0  0  0  0  0  0
   14.4420    2.0070   58.6730 N   0  0  0  0  0  0  0  0  0  0  0  0
   15.7630    1.8850   58.4860 C   0  0  0  0  0  0  0  0  0  0  0  0
   16.5220    1.0500   59.3320 C   0  0  0  0  0  0  0  0  0  0  0  0
   15.8250    0.3620   60.3540 C   0  0  0  0  0  0  0  0  0  0  0  0
   16.4090    2.6820   57.3640 C   0  0  0  0  0  0  0  0  0  0  0  0
   16.0400    4.1440   57.5720 C   0  0  0  0  0  0  0  0  0  0  0  0
   16.3910    4.8400   56.3480 N   0  0  0  0  0  0  0  0  0  0  0  0
   19.1240    8.9530   54.2370 C   0  0  0  0  0  0  0  0  0  0  0  0
   17.8080    5.1560   56.4270 C   0  0  0  0  0  0  0  0  0  0  0  0
   18.2140    6.1060   55.2750 C   0  0  0  0  0  0  0  0  0  0  0  0
   19.5820    6.7680   55.5140 C   0  0  0  0  0  0  0  0  0  0  0  0
   19.4880    9.9270   53.2920 C   0  0  0  0  0  0  0  0  0  0  0  0
   20.6810    9.8050   52.5770 C   0  0  0  0  0  0  0  0  0  0  0  0
   21.5130    8.7120   52.8000 C   0  0  0  0  0  0  0  0  0  0  0  0
   21.1470    7.7360   53.7450 C   0  0  0  0  0  0  0  0  0  0  0  0
   18.4520   11.3050   52.9990 Cl  0  0  0  0  0  0  0  0  0  0  0  0
  2  1  2  0
  5  1  1  0
  3  2  1  0
  4  3  1  0
  8  3  1  0
  5  4  2  0
 16  6  2  0
 19  6  1  0
 23  6  1  0
  8  7  2  0
 12  7  1  0
  9  8  1  0
 10  9  2  0
 11 10  1  0
 13 10  1  0
 12 11  2  0
 14 13  1  0
 15 14  1  0
 17 15  1  0
 20 16  1  0
 18 17  1  0
 19 18  1  0
 21 20  2  0
 24 20  1  0
 22 21  1  0
 23 22  2  0
A    1
N01
A    2
C02
A    3
N03
A    4
C04
A    5
C05
A    6
C1'
A    7
N11
A    8
C12
A    9
N13
A   10
C14
A   11
C15
A   12
C16
A   13
C17
A   14
C18
A   15
N19
A   16
C2'
A   17
C20
A   18
C21
A   19
C22
A   20
C3'
A   21
C4'
A   22
C5'
A   23
C6'
A   24
CL7'
M  END
>  <Id>  (111) 
4V3Y_HLW_B_800

>  <ChainId>  (111) 
B

>  <AsymId>  (111) 
J

>  <SeqNum>  (111) 
800

>  <Name>  (111) 
3-(3-chlorophenyl)-N-{2-[2-(1H-imidazol-1-yl)pyrimidin-4-yl]ethyl}propan-1-amine

>  <SystematicName>  (111) 
3-(3-chlorophenyl)-N-[2-(2-imidazol-1-ylpyrimidin-4-yl)ethyl]propan-1-amine

>  <Synonyms>  (111) 
N-2-(2-(1H-IMIDAZOL-1-YL)PYRIMIDIN-4-YL)ETHYL-3-(3-CHLOROPHENYL)PROPAN-1-AMINE

>  <Type>  (111) 
NON-POLYMER

>  <Formula>  (111) 
C18 H20 Cl N5

>  <ObservedFormula>  (111) 
C18 Cl N5

>  <MolecularWeight>  (111) 
341.838

>  <ModifiedDate>  (111) 
2014-12-19

>  <Parent>  (111) 


>  <OneLetterCode>  (111) 


>  <SubcomponentList>  (111) 


>  <AmbiguousFlag>  (111) 
N

>  <InsertionCode>  (111) 


>  <InstanceId>  (111) 
4V3Y_HLW_B_800

>  <ChemCompId>  (111) 
HLW

>  <PdbId>  (111) 
4V3Y

>  <ResidueNumber>  (111) 
800

>  <InChI>  (111) 
InChI=1S/C18H20ClN5/c19-16-5-1-3-15(13-16)4-2-8-20-9-6-17-7-10-22-18(23-17)24-12-11-21-14-24/h1,3,5,7,10-14,20H,2,4,6,8-9H2

>  <InChIKey>  (111) 
VPDCBONBBAYCIG-UHFFFAOYSA-N

>  <SMILES>  (111) 
c1cc(cc(c1)Cl)CCCNCCc2ccnc(n2)n3ccnc3

>  <MissingHeavyAtoms>  (111) 
0

>  <Model>  (111) 
1

>  <AltIds>  (111) 


>  <pKI>  (111) 
7.49

>  <ChemblID>  (111) 
CHEMBL3407811

>  <standardized_canonical_smiles>  (111) 
Clc1cccc(CCCNCCc2ccnc(-n3ccnc3)n2)c1

$$$$
4V3X_4E8_B_800
     RDKit          3D

 24 26  0  0  0  0  0  0  0  0999 V2000
   10.3330    2.1210   59.2850 N   0  0  0  0  0  0  0  0  0  0  0  0
   11.6250    2.1430   58.8850 C   0  0  0  0  0  0  0  0  0  0  0  0
   12.2360    1.4530   59.8720 N   0  0  0  0  0  0  0  0  0  0  0  0
   11.4790    1.0240   60.8930 C   0  0  0  0  0  0  0  0  0  0  0  0
   10.2400    1.4790   60.5270 C   0  0  0  0  0  0  0  0  0  0  0  0
   19.0460    8.2540   54.7630 C   0  0  0  0  0  0  0  0  0  0  0  0
   14.2590    0.5020   60.6240 N   0  0  0  0  0  0  0  0  0  0  0  0
   13.5780    1.2920   59.7980 C   0  0  0  0  0  0  0  0  0  0  0  0
   14.2720    1.9350   58.8090 N   0  0  0  0  0  0  0  0  0  0  0  0
   15.6150    1.8240   58.6610 C   0  0  0  0  0  0  0  0  0  0  0  0
   16.3520    1.0280   59.5330 C   0  0  0  0  0  0  0  0  0  0  0  0
   15.6220    0.3780   60.5350 C   0  0  0  0  0  0  0  0  0  0  0  0
   16.2860    2.6220   57.5590 C   0  0  0  0  0  0  0  0  0  0  0  0
   16.0520    4.1330   57.6990 C   0  0  0  0  0  0  0  0  0  0  0  0
   16.5550    4.7860   56.4570 N   0  0  0  0  0  0  0  0  0  0  0  0
   18.1860    9.1350   54.1030 C   0  0  0  0  0  0  0  0  0  0  0  0
   18.0480    4.9170   56.4790 C   0  0  0  0  0  0  0  0  0  0  0  0
   18.5570    5.8260   55.3420 C   0  0  0  0  0  0  0  0  0  0  0  0
   18.4290    7.2870   55.7500 C   0  0  0  0  0  0  0  0  0  0  0  0
   18.7260   10.0540   53.1910 C   0  0  0  0  0  0  0  0  0  0  0  0
   20.1170   10.1180   52.9420 C   0  0  0  0  0  0  0  0  0  0  0  0
   20.9650    9.2500   53.6250 C   0  0  0  0  0  0  0  0  0  0  0  0
   20.4310    8.3160   54.5280 C   0  0  0  0  0  0  0  0  0  0  0  0
   17.8770   10.8920   52.5470 F   0  0  0  0  0  0  0  0  0  0  0  0
  2  1  2  0
  5  1  1  0
  3  2  1  0
  4  3  1  0
  8  3  1  0
  5  4  2  0
 16  6  2  0
 19  6  1  0
 23  6  1  0
  8  7  2  0
 12  7  1  0
  9  8  1  0
 10  9  2  0
 11 10  1  0
 13 10  1  0
 12 11  2  0
 14 13  1  0
 15 14  1  0
 17 15  1  0
 20 16  1  0
 18 17  1  0
 19 18  1  0
 21 20  2  0
 24 20  1  0
 22 21  1  0
 23 22  2  0
A    1
N01
A    2
C02
A    3
N03
A    4
C04
A    5
C05
A    6
C1'
A    7
N11
A    8
C12
A    9
N13
A   10
C14
A   11
C15
A   12
C16
A   13
C17
A   14
C18
A   15
N19
A   16
C2'
A   17
C20
A   18
C21
A   19
C22
A   20
C3'
A   21
C4'
A   22
C5'
A   23
C6'
A   24
F7'
M  END
>  <Id>  (112) 
4V3X_4E8_B_800

>  <ChainId>  (112) 
B

>  <AsymId>  (112) 
J

>  <SeqNum>  (112) 
800

>  <Name>  (112) 
3-(3-fluorophenyl)-N-{2-[2-(1H-imidazol-1-yl)pyrimidin-4-yl]ethyl}propan-1-amine

>  <SystematicName>  (112) 
3-(3-fluorophenyl)-N-[2-(2-imidazol-1-ylpyrimidin-4-yl)ethyl]propan-1-amine

>  <Synonyms>  (112) 
N-2-(2-(1H-imidazol-1-yl)pyrimidin-4-yl)ethyl-3-(3-fluorophenyl)propan-1-amine

>  <Type>  (112) 
NON-POLYMER

>  <Formula>  (112) 
C18 H20 F N5

>  <ObservedFormula>  (112) 
C18 F N5

>  <MolecularWeight>  (112) 
325.383

>  <ModifiedDate>  (112) 
2017-01-18

>  <Parent>  (112) 


>  <OneLetterCode>  (112) 


>  <SubcomponentList>  (112) 


>  <AmbiguousFlag>  (112) 
N

>  <InsertionCode>  (112) 


>  <InstanceId>  (112) 
4V3X_4E8_B_800

>  <ChemCompId>  (112) 
4E8

>  <PdbId>  (112) 
4V3X

>  <ResidueNumber>  (112) 
800

>  <InChI>  (112) 
InChI=1S/C18H20FN5/c19-16-5-1-3-15(13-16)4-2-8-20-9-6-17-7-10-22-18(23-17)24-12-11-21-14-24/h1,3,5,7,10-14,20H,2,4,6,8-9H2

>  <InChIKey>  (112) 
GTABKUMYLUXCIH-UHFFFAOYSA-N

>  <SMILES>  (112) 
c1cc(cc(c1)F)CCCNCCc2ccnc(n2)n3ccnc3

>  <MissingHeavyAtoms>  (112) 
0

>  <Model>  (112) 
1

>  <AltIds>  (112) 


>  <pKI>  (112) 
7.72

>  <ChemblID>  (112) 
CHEMBL3407810

>  <standardized_canonical_smiles>  (112) 
Fc1cccc(CCCNCCc2ccnc(-n3ccnc3)n2)c1

$$$$
4V3W_E2Z_B_800
     RDKit          3D

 23 25  0  0  0  0  0  0  0  0999 V2000
   10.0160    2.0780   59.0490 N   0  0  0  0  0  0  0  0  0  0  0  0
   11.2140    2.2480   58.5700 C   0  0  0  0  0  0  0  0  0  0  0  0
   11.9320    1.5500   59.4770 N   0  0  0  0  0  0  0  0  0  0  0  0
   11.2810    0.9760   60.4920 C   0  0  0  0  0  0  0  0  0  0  0  0
    9.9790    1.3490   60.2020 C   0  0  0  0  0  0  0  0  0  0  0  0
   18.9310    6.1760   54.3990 C   0  0  0  0  0  0  0  0  0  0  0  0
   14.0170    0.6060   60.1940 N   0  0  0  0  0  0  0  0  0  0  0  0
   13.3060    1.4040   59.3720 C   0  0  0  0  0  0  0  0  0  0  0  0
   13.9750    2.0410   58.4080 N   0  0  0  0  0  0  0  0  0  0  0  0
   15.3300    1.9140   58.2440 C   0  0  0  0  0  0  0  0  0  0  0  0
   16.1240    1.1020   59.0830 C   0  0  0  0  0  0  0  0  0  0  0  0
   15.4110    0.4360   60.0930 C   0  0  0  0  0  0  0  0  0  0  0  0
   15.9310    2.6910   57.1310 C   0  0  0  0  0  0  0  0  0  0  0  0
   15.6760    4.1550   57.3830 C   0  0  0  0  0  0  0  0  0  0  0  0
   15.9830    4.7300   56.0670 N   0  0  0  0  0  0  0  0  0  0  0  0
   20.0710    5.4380   54.0790 C   0  0  0  0  0  0  0  0  0  0  0  0
   17.4160    5.0140   55.9360 C   0  0  0  0  0  0  0  0  0  0  0  0
   17.6270    5.4240   54.4950 C   0  0  0  0  0  0  0  0  0  0  0  0
   21.2810    6.1150   54.0240 C   0  0  0  0  0  0  0  0  0  0  0  0
   21.3700    7.4930   54.2530 C   0  0  0  0  0  0  0  0  0  0  0  0
   20.2150    8.2450   54.5450 C   0  0  0  0  0  0  0  0  0  0  0  0
   18.9810    7.5730   54.6310 C   0  0  0  0  0  0  0  0  0  0  0  0
   22.3780    5.4220   53.7390 F   0  0  0  0  0  0  0  0  0  0  0  0
  2  1  2  0
  5  1  1  0
  3  2  1  0
  4  3  1  0
  8  3  1  0
  5  4  2  0
 16  6  2  0
 18  6  1  0
 22  6  1  0
  8  7  2  0
 12  7  1  0
  9  8  1  0
 10  9  2  0
 11 10  1  0
 13 10  1  0
 12 11  2  0
 14 13  1  0
 15 14  1  0
 17 15  1  0
 19 16  1  0
 18 17  1  0
 20 19  2  0
 23 19  1  0
 21 20  1  0
 22 21  2  0
A    1
N01
A    2
C02
A    3
N03
A    4
C04
A    5
C05
A    6
C1'
A    7
N11
A    8
C12
A    9
N13
A   10
C14
A   11
C15
A   12
C16
A   13
C17
A   14
C18
A   15
N19
A   16
C2'
A   17
C20
A   18
C21
A   19
C3'
A   20
C4'
A   21
C5'
A   22
C6'
A   23
F7'
M  END
>  <Id>  (113) 
4V3W_E2Z_B_800

>  <ChainId>  (113) 
B

>  <AsymId>  (113) 
J

>  <SeqNum>  (113) 
800

>  <Name>  (113) 
2-(3-fluorophenyl)-N-{2-[2-(1H-imidazol-1-yl)pyrimidin-4-yl]ethyl}ethanamine

>  <SystematicName>  (113) 
2-(3-fluorophenyl)-N-[2-(2-imidazol-1-ylpyrimidin-4-yl)ethyl]ethanamine

>  <Synonyms>  (113) 
2-(2-(1H-Imidazol-1-yl)pyrimidin-4-yl)-n-(3-fluorophenethyl)ethan-1-amine

>  <Type>  (113) 
NON-POLYMER

>  <Formula>  (113) 
C17 H18 F N5

>  <ObservedFormula>  (113) 
C17 F N5

>  <MolecularWeight>  (113) 
311.357

>  <ModifiedDate>  (113) 
2017-01-18

>  <Parent>  (113) 


>  <OneLetterCode>  (113) 


>  <SubcomponentList>  (113) 


>  <AmbiguousFlag>  (113) 
N

>  <InsertionCode>  (113) 


>  <InstanceId>  (113) 
4V3W_E2Z_B_800

>  <ChemCompId>  (113) 
E2Z

>  <PdbId>  (113) 
4V3W

>  <ResidueNumber>  (113) 
800

>  <InChI>  (113) 
InChI=1S/C17H18FN5/c18-15-3-1-2-14(12-15)4-7-19-8-5-16-6-9-21-17(22-16)23-11-10-20-13-23/h1-3,6,9-13,19H,4-5,7-8H2

>  <InChIKey>  (113) 
ZPTNPJCYGBTULC-UHFFFAOYSA-N

>  <SMILES>  (113) 
c1cc(cc(c1)F)CCNCCc2ccnc(n2)n3ccnc3

>  <MissingHeavyAtoms>  (113) 
0

>  <Model>  (113) 
1

>  <AltIds>  (113) 


>  <pKI>  (113) 
6.86

>  <ChemblID>  (113) 
CHEMBL3407809

>  <standardized_canonical_smiles>  (113) 
Fc1cccc(CCNCCc2ccnc(-n3ccnc3)n2)c1

$$$$
4V3V_S8F_B_800
     RDKit          3D

 23 25  0  0  0  0  0  0  0  0999 V2000
   10.2370    2.2030   59.0110 N   0  0  0  0  0  0  0  0  0  0  0  0
   11.4530    2.3540   58.5030 C   0  0  0  0  0  0  0  0  0  0  0  0
   12.2010    1.5690   59.2760 N   0  0  0  0  0  0  0  0  0  0  0  0
   11.5970    0.9550   60.2800 C   0  0  0  0  0  0  0  0  0  0  0  0
   10.2950    1.3690   60.0880 C   0  0  0  0  0  0  0  0  0  0  0  0
   19.6610    6.3720   54.2830 C   0  0  0  0  0  0  0  0  0  0  0  0
   14.3600    0.5960   59.6450 N   0  0  0  0  0  0  0  0  0  0  0  0
   13.5310    1.4920   59.0650 C   0  0  0  0  0  0  0  0  0  0  0  0
   14.0400    2.4010   58.2110 N   0  0  0  0  0  0  0  0  0  0  0  0
   15.3450    2.4370   57.9280 C   0  0  0  0  0  0  0  0  0  0  0  0
   16.2340    1.5190   58.5210 C   0  0  0  0  0  0  0  0  0  0  0  0
   15.6970    0.5720   59.3750 C   0  0  0  0  0  0  0  0  0  0  0  0
   15.7320    3.5450   56.9940 C   0  0  0  0  0  0  0  0  0  0  0  0
   17.0680    3.9990   57.3500 N   0  0  0  0  0  0  0  0  0  0  0  0
   17.8200    3.9900   56.0770 C   0  0  0  0  0  0  0  0  0  0  0  0
   21.0000    6.0090   54.0800 C   0  0  0  0  0  0  0  0  0  0  0  0
   17.6100    5.2840   55.2950 C   0  0  0  0  0  0  0  0  0  0  0  0
   18.6460    5.2590   54.1830 C   0  0  0  0  0  0  0  0  0  0  0  0
   21.9860    6.9960   54.1470 C   0  0  0  0  0  0  0  0  0  0  0  0
   21.6080    8.3440   54.4080 C   0  0  0  0  0  0  0  0  0  0  0  0
   20.2550    8.7090   54.5940 C   0  0  0  0  0  0  0  0  0  0  0  0
   19.2640    7.7120   54.5360 C   0  0  0  0  0  0  0  0  0  0  0  0
   23.2920    6.6470   53.9640 F   0  0  0  0  0  0  0  0  0  0  0  0
  2  1  2  0
  5  1  1  0
  3  2  1  0
  4  3  1  0
  8  3  1  0
  5  4  2  0
 16  6  2  0
 18  6  1  0
 22  6  1  0
  8  7  2  0
 12  7  1  0
  9  8  1  0
 10  9  2  0
 11 10  1  0
 13 10  1  0
 12 11  2  0
 14 13  1  0
 15 14  1  0
 17 15  1  0
 19 16  1  0
 18 17  1  0
 20 19  2  0
 23 19  1  0
 21 20  1  0
 22 21  2  0
A    1
N01
A    2
C02
A    3
N03
A    4
C04
A    5
C05
A    6
C1'
A    7
N11
A    8
C12
A    9
N13
A   10
C14
A   11
C15
A   12
C16
A   13
C17
A   14
N18
A   15
C19
A   16
C2'
A   17
C20
A   18
C21
A   19
C3'
A   20
C4'
A   21
C5'
A   22
C6'
A   23
F7'
M  END
>  <Id>  (114) 
4V3V_S8F_B_800

>  <ChainId>  (114) 
B

>  <AsymId>  (114) 
J

>  <SeqNum>  (114) 
800

>  <Name>  (114) 
3-(3-fluorophenyl)-N-{[2-(1H-imidazol-1-yl)pyrimidin-4-yl]methyl}propan-1-amine

>  <SystematicName>  (114) 
3-(3-fluorophenyl)-N-[(2-imidazol-1-ylpyrimidin-4-yl)methyl]propan-1-amine

>  <Synonyms>  (114) 
N-(2-(1H-IMIDAZOL-1-YL)-4-PYRIMIDYLMETHYL)-3-(3-FLUOROPHENYL)PROPAN-1-AMINE

>  <Type>  (114) 
NON-POLYMER

>  <Formula>  (114) 
C17 H18 F N5

>  <ObservedFormula>  (114) 
C17 F N5

>  <MolecularWeight>  (114) 
311.357

>  <ModifiedDate>  (114) 
2014-12-19

>  <Parent>  (114) 


>  <OneLetterCode>  (114) 


>  <SubcomponentList>  (114) 


>  <AmbiguousFlag>  (114) 
N

>  <InsertionCode>  (114) 


>  <InstanceId>  (114) 
4V3V_S8F_B_800

>  <ChemCompId>  (114) 
S8F

>  <PdbId>  (114) 
4V3V

>  <ResidueNumber>  (114) 
800

>  <InChI>  (114) 
InChI=1S/C17H18FN5/c18-15-5-1-3-14(11-15)4-2-7-19-12-16-6-8-21-17(22-16)23-10-9-20-13-23/h1,3,5-6,8-11,13,19H,2,4,7,12H2

>  <InChIKey>  (114) 
MFPWDFATUAKLEA-UHFFFAOYSA-N

>  <SMILES>  (114) 
c1cc(cc(c1)F)CCCNCc2ccnc(n2)n3ccnc3

>  <MissingHeavyAtoms>  (114) 
0

>  <Model>  (114) 
1

>  <AltIds>  (114) 


>  <pKI>  (114) 
5.57

>  <ChemblID>  (114) 
CHEMBL3407808

>  <standardized_canonical_smiles>  (114) 
Fc1cccc(CCCNCc2ccnc(-n3ccnc3)n2)c1

$$$$
4D3B_6J0_B_800
     RDKit          3D

 24 26  0  0  0  0  0  0  0  0999 V2000
   10.4620    1.8930   59.1000 N   0  0  0  0  0  0  0  0  0  0  0  0
   11.7020    1.9860   58.5740 C   0  0  0  0  0  0  0  0  0  0  0  0
   12.4470    1.3610   59.4810 N   0  0  0  0  0  0  0  0  0  0  0  0
   11.7970    0.8970   60.5580 C   0  0  0  0  0  0  0  0  0  0  0  0
   10.4860    1.2430   60.3000 C   0  0  0  0  0  0  0  0  0  0  0  0
   19.0040    7.9010   54.4840 C   0  0  0  0  0  0  0  0  0  0  0  0
   14.4880    0.5300   60.2020 N   0  0  0  0  0  0  0  0  0  0  0  0
   13.7660    1.2590   59.3280 C   0  0  0  0  0  0  0  0  0  0  0  0
   14.3560    1.9280   58.3120 N   0  0  0  0  0  0  0  0  0  0  0  0
   15.6910    1.8610   58.1280 C   0  0  0  0  0  0  0  0  0  0  0  0
   16.4490    1.0980   59.0110 C   0  0  0  0  0  0  0  0  0  0  0  0
   15.8130    0.4350   60.0580 C   0  0  0  0  0  0  0  0  0  0  0  0
   16.2910    2.5310   57.1080 N   0  0  0  0  0  0  0  0  0  0  0  0
   17.6050    3.0870   57.3800 C   0  0  0  0  0  0  0  0  0  0  0  0
   18.4250    3.3360   56.1270 C   0  0  0  0  0  0  0  0  0  0  0  0
   18.1910    8.8730   53.9200 C   0  0  0  0  0  0  0  0  0  0  0  0
   17.8750    4.4380   55.3670 N   0  0  0  0  0  0  0  0  0  0  0  0
   18.7510    5.4660   54.8400 C   0  0  0  0  0  0  0  0  0  0  0  0
   18.3790    6.8460   55.3640 C   0  0  0  0  0  0  0  0  0  0  0  0
   18.7500    9.8490   53.1040 C   0  0  0  0  0  0  0  0  0  0  0  0
   20.1190    9.8570   52.8430 C   0  0  0  0  0  0  0  0  0  0  0  0
   20.9380    8.8830   53.4040 C   0  0  0  0  0  0  0  0  0  0  0  0
   20.3720    7.9050   54.2220 C   0  0  0  0  0  0  0  0  0  0  0  0
   17.9460   10.7810   52.5660 F   0  0  0  0  0  0  0  0  0  0  0  0
  2  1  2  0
  5  1  1  0
  3  2  1  0
  4  3  1  0
  8  3  1  0
  5  4  2  0
 16  6  2  0
 19  6  1  0
 23  6  1  0
  8  7  2  0
 12  7  1  0
  9  8  1  0
 10  9  2  0
 11 10  1  0
 13 10  1  0
 12 11  2  0
 14 13  1  0
 15 14  1  0
 17 15  1  0
 20 16  1  0
 18 17  1  0
 19 18  1  0
 21 20  2  0
 24 20  1  0
 22 21  1  0
 23 22  2  0
A    1
N01
A    2
C02
A    3
N03
A    4
C04
A    5
C05
A    6
C1'
A    7
N11
A    8
C12
A    9
N13
A   10
C14
A   11
C15
A   12
C16
A   13
N17
A   14
C18
A   15
C19
A   16
C2'
A   17
N20
A   18
C21
A   19
C22
A   20
C3'
A   21
C4'
A   22
C5'
A   23
C6'
A   24
F7'
M  END
>  <Id>  (115) 
4D3B_6J0_B_800

>  <ChainId>  (115) 
B

>  <AsymId>  (115) 
J

>  <SeqNum>  (115) 
800

>  <Name>  (115) 
N-[2-(3-fluorophenyl)ethyl]-N'-[2-(1H-imidazol-1-yl)pyrimidin-4-yl]ethane-1,2-diamine

>  <SystematicName>  (115) 
N-[2-(3-fluorophenyl)ethyl]-N'-(2-imidazol-1-ylpyrimidin-4-yl)ethane-1,2-diamine

>  <Synonyms>  (115) 
(N1-(2-(1H-imidazol-1-yl)pyrimidin-4-yl)-N2-(3-fluorophenethyl)ethane-1,2-diamine

>  <Type>  (115) 
NON-POLYMER

>  <Formula>  (115) 
C17 H19 F N6

>  <ObservedFormula>  (115) 
C17 F N6

>  <MolecularWeight>  (115) 
326.371

>  <ModifiedDate>  (115) 
2014-12-19

>  <Parent>  (115) 


>  <OneLetterCode>  (115) 


>  <SubcomponentList>  (115) 


>  <AmbiguousFlag>  (115) 
N

>  <InsertionCode>  (115) 


>  <InstanceId>  (115) 
4D3B_6J0_B_800

>  <ChemCompId>  (115) 
6J0

>  <PdbId>  (115) 
4D3B

>  <ResidueNumber>  (115) 
800

>  <InChI>  (115) 
InChI=1S/C17H19FN6/c18-15-3-1-2-14(12-15)4-6-19-8-9-21-16-5-7-22-17(23-16)24-11-10-20-13-24/h1-3,5,7,10-13,19H,4,6,8-9H2,(H,21,22,23)

>  <InChIKey>  (115) 
YCRYBRYYCUMKOD-UHFFFAOYSA-N

>  <SMILES>  (115) 
c1cc(cc(c1)F)CCNCCNc2ccnc(n2)n3ccnc3

>  <MissingHeavyAtoms>  (115) 
0

>  <Model>  (115) 
1

>  <AltIds>  (115) 


>  <pKI>  (115) 
6.43

>  <ChemblID>  (115) 
CHEMBL3407806

>  <standardized_canonical_smiles>  (115) 
Fc1cccc(CCNCCNc2ccnc(-n3ccnc3)n2)c1

$$$$
4UGZ_4V4_B_800
     RDKit          3D

 22 23  0  0  0  0  0  0  0  0999 V2000
   12.6670   -0.4450   58.7920 N   0  0  0  0  0  0  0  0  0  0  0  0
   11.4420   -0.8200   59.2170 C   0  0  0  0  0  0  0  0  0  0  0  0
   10.8170   -1.8410   58.5820 N   0  0  0  0  0  0  0  0  0  0  0  0
   10.8390   -0.1570   60.2920 C   0  0  0  0  0  0  0  0  0  0  0  0
   11.5010    0.8900   60.9320 C   0  0  0  0  0  0  0  0  0  0  0  0
   12.7660    1.2520   60.4740 C   0  0  0  0  0  0  0  0  0  0  0  0
   13.3360    0.5710   59.3940 C   0  0  0  0  0  0  0  0  0  0  0  0
   10.8660    1.6170   62.0910 C   0  0  0  0  0  0  0  0  0  0  0  0
   14.7120    0.9580   58.8840 C   0  0  0  0  0  0  0  0  0  0  0  0
   14.6000    1.7800   57.6040 C   0  0  0  0  0  0  0  0  0  0  0  0
   14.3880    3.2470   57.9360 C   0  0  0  0  0  0  0  0  0  0  0  0
   13.1210    3.6980   58.3230 C   0  0  0  0  0  0  0  0  0  0  0  0
   12.9230    5.0380   58.6530 C   0  0  0  0  0  0  0  0  0  0  0  0
   13.9960    5.9270   58.5950 C   0  0  0  0  0  0  0  0  0  0  0  0
   15.2710    5.4970   58.2070 C   0  0  0  0  0  0  0  0  0  0  0  0
   15.4620    4.1460   57.8770 C   0  0  0  0  0  0  0  0  0  0  0  0
   16.1870    7.7870   58.6150 C   0  0  0  0  0  0  0  0  0  0  0  0
   16.3450    6.4160   58.1440 N   0  0  0  0  0  0  0  0  0  0  0  0
   17.6170    6.0080   57.5630 C   0  0  0  0  0  0  0  0  0  0  0  0
   17.4230    6.2830   56.0690 C   0  0  0  0  0  0  0  0  0  0  0  0
   18.5850    5.9090   55.2840 N   0  0  0  0  0  0  0  0  0  0  0  0
   19.2900    6.9260   54.5210 C   0  0  0  0  0  0  0  0  0  0  0  0
  2  1  2  0
  7  1  1  0
  3  2  1  0
  4  2  1  0
  5  4  2  0
  6  5  1  0
  8  5  1  0
  7  6  2  0
  9  7  1  0
 10  9  1  0
 11 10  1  0
 12 11  2  0
 16 11  1  0
 13 12  1  0
 14 13  2  0
 15 14  1  0
 16 15  2  0
 18 15  1  0
 18 17  1  0
 19 18  1  0
 20 19  1  0
 21 20  1  0
 22 21  1  0
A    1
N01
A    2
C02
A    3
N02
A    4
C03
A    5
C04
A    6
C05
A    7
C06
A    8
C07
A    9
C08
A   10
C09
A   11
C11
A   12
C12
A   13
C13
A   14
C14
A   15
C15
A   16
C16
A   17
C17
A   18
N17
A   19
C18
A   20
C19
A   21
N20
A   22
C21
M  END
>  <Id>  (116) 
4UGZ_4V4_B_800

>  <ChainId>  (116) 
B

>  <AsymId>  (116) 
J

>  <SeqNum>  (116) 
800

>  <Name>  (116) 
N1-(3-(2-(6-Amino-4-methylpyridin-2-yl)ethyl)phenyl)-N1,N2-dimethylethane-1,2-diamine

>  <SystematicName>  (116) 
N'-[3-[2-(6-azanyl-4-methyl-pyridin-2-yl)ethyl]phenyl]-N,N'-dimethyl-ethane-1,2-diamine

>  <Synonyms>  (116) 


>  <Type>  (116) 
NON-POLYMER

>  <Formula>  (116) 
C18 H26 N4

>  <ObservedFormula>  (116) 
C18 N4

>  <MolecularWeight>  (116) 
298.426

>  <ModifiedDate>  (116) 
2015-06-19

>  <Parent>  (116) 


>  <OneLetterCode>  (116) 


>  <SubcomponentList>  (116) 


>  <AmbiguousFlag>  (116) 
N

>  <InsertionCode>  (116) 


>  <InstanceId>  (116) 
4UGZ_4V4_B_800

>  <ChemCompId>  (116) 
4V4

>  <PdbId>  (116) 
4UGZ

>  <ResidueNumber>  (116) 
800

>  <InChI>  (116) 
InChI=1S/C18H26N4/c1-14-11-16(21-18(19)12-14)8-7-15-5-4-6-17(13-15)22(3)10-9-20-2/h4-6,11-13,20H,7-10H2,1-3H3,(H2,19,21)

>  <InChIKey>  (116) 
MIKRWQRFDGLBCF-UHFFFAOYSA-N

>  <SMILES>  (116) 
Cc1cc(nc(c1)N)CCc2cccc(c2)N(C)CCNC

>  <MissingHeavyAtoms>  (116) 
0

>  <Model>  (116) 
1

>  <AltIds>  (116) 


>  <pKI>  (116) 
6.89

>  <ChemblID>  (116) 
CHEMBL3586656

>  <standardized_canonical_smiles>  (116) 
CNCCN(C)c1cccc(CCc2cc(C)cc(N)n2)c1

$$$$
4UH0_SKO_B_800
     RDKit          3D

 22 23  0  0  0  0  0  0  0  0999 V2000
   10.9110   -1.9110   58.8120 N   0  0  0  0  0  0  0  0  0  0  0  0
   11.5340   -0.8850   59.4610 C   0  0  0  0  0  0  0  0  0  0  0  0
   10.9680   -0.2680   60.5920 C   0  0  0  0  0  0  0  0  0  0  0  0
   11.6590    0.7800   61.2130 C   0  0  0  0  0  0  0  0  0  0  0  0
   11.1000    1.4880   62.4170 C   0  0  0  0  0  0  0  0  0  0  0  0
   12.8850    1.1870   60.7040 C   0  0  0  0  0  0  0  0  0  0  0  0
   12.7310   -0.4570   58.9950 N   0  0  0  0  0  0  0  0  0  0  0  0
   13.4130    0.5630   59.5730 C   0  0  0  0  0  0  0  0  0  0  0  0
   14.7550    1.0050   59.0140 C   0  0  0  0  0  0  0  0  0  0  0  0
   14.5510    1.8490   57.7510 C   0  0  0  0  0  0  0  0  0  0  0  0
   14.3250    3.2960   58.1580 C   0  0  0  0  0  0  0  0  0  0  0  0
   13.0660    3.7470   58.5730 C   0  0  0  0  0  0  0  0  0  0  0  0
   12.9000    5.0810   58.9530 C   0  0  0  0  0  0  0  0  0  0  0  0
   14.0010    5.9360   58.9130 C   0  0  0  0  0  0  0  0  0  0  0  0
   15.3720    4.1520   58.1380 N   0  0  0  0  0  0  0  0  0  0  0  0
   15.2410    5.4540   58.4960 C   0  0  0  0  0  0  0  0  0  0  0  0
   16.3600    6.3020   58.4410 N   0  0  0  0  0  0  0  0  0  0  0  0
   16.2120    7.7260   58.7580 C   0  0  0  0  0  0  0  0  0  0  0  0
   17.6680    5.7450   58.0760 C   0  0  0  0  0  0  0  0  0  0  0  0
   17.6970    5.5100   56.5540 C   0  0  0  0  0  0  0  0  0  0  0  0
   17.1660    6.6230   55.7920 N   0  0  0  0  0  0  0  0  0  0  0  0
   18.0340    7.7130   55.3720 C   0  0  0  0  0  0  0  0  0  0  0  0
  2  1  1  0
  3  2  2  0
  7  2  1  0
  4  3  1  0
  5  4  1  0
  6  4  2  0
  8  6  1  0
  8  7  2  0
  9  8  1  0
 10  9  1  0
 11 10  1  0
 12 11  2  0
 15 11  1  0
 13 12  1  0
 14 13  2  0
 16 14  1  0
 16 15  2  0
 17 16  1  0
 18 17  1  0
 19 17  1  0
 20 19  1  0
 21 20  1  0
 22 21  1  0
A    1
N02
A    2
C02
A    3
C03
A    4
C04
A    5
C07
A    6
C05
A    7
N01
A    8
C06
A    9
C08
A   10
C09
A   11
C12
A   12
C13
A   13
C14
A   14
C15
A   15
N11
A   16
C16
A   17
N17
A   18
C17
A   19
C18
A   20
C19
A   21
N20
A   22
C21
M  END
>  <Id>  (117) 
4UH0_SKO_B_800

>  <ChainId>  (117) 
B

>  <AsymId>  (117) 
I

>  <SeqNum>  (117) 
800

>  <Name>  (117) 
N'-[6-[2-(6-AZANYL-4-METHYL-PYRIDIN-2-YL)ETHYL]PYRIDIN-2-YL]-N,N'-DIMETHYL-ETHANE-1,2-DIAMINE

>  <SystematicName>  (117) 
N'-[6-[2-(6-azanyl-4-methyl-pyridin-2-yl)ethyl]pyridin-2-yl]-N,N'-dimethyl-ethane-1,2-diamine

>  <Synonyms>  (117) 


>  <Type>  (117) 
non-polymer

>  <Formula>  (117) 
C17 H25 N5

>  <ObservedFormula>  (117) 
C17 N5

>  <MolecularWeight>  (117) 
299.414

>  <ModifiedDate>  (117) 
2015-06-19

>  <Parent>  (117) 


>  <OneLetterCode>  (117) 


>  <SubcomponentList>  (117) 


>  <AmbiguousFlag>  (117) 
N

>  <InsertionCode>  (117) 


>  <InstanceId>  (117) 
4UH0_SKO_B_800

>  <ChemCompId>  (117) 
SKO

>  <PdbId>  (117) 
4UH0

>  <ResidueNumber>  (117) 
800

>  <InChI>  (117) 
InChI=1S/C17H25N5/c1-13-11-15(20-16(18)12-13)8-7-14-5-4-6-17(21-14)22(3)10-9-19-2/h4-6,11-12,19H,7-10H2,1-3H3,(H2,18,20)

>  <InChIKey>  (117) 
AVQUEPVPLWZPMB-UHFFFAOYSA-N

>  <SMILES>  (117) 
Cc1cc(nc(c1)N)CCc2cccc(n2)N(C)CCNC

>  <MissingHeavyAtoms>  (117) 
0

>  <Model>  (117) 
1

>  <AltIds>  (117) 


>  <pKI>  (117) 
7.46

>  <ChemblID>  (117) 
CHEMBL3586660

>  <standardized_canonical_smiles>  (117) 
CNCCN(C)c1cccc(CCc2cc(C)cc(N)n2)n1

$$$$
4UH1_EXI_B_800
     RDKit          3D

 22 23  0  0  0  0  0  0  0  0999 V2000
   12.6150   -0.4670   58.3780 N   0  0  0  0  0  0  0  0  0  0  0  0
   11.3300   -0.8170   58.7420 C   0  0  0  0  0  0  0  0  0  0  0  0
   10.8410   -1.9820   58.2300 N   0  0  0  0  0  0  0  0  0  0  0  0
   10.7210   -0.1680   59.7750 C   0  0  0  0  0  0  0  0  0  0  0  0
   11.2290    0.9820   60.2950 C   0  0  0  0  0  0  0  0  0  0  0  0
   12.5350    1.3910   59.8700 C   0  0  0  0  0  0  0  0  0  0  0  0
   13.1520    0.6640   58.8760 C   0  0  0  0  0  0  0  0  0  0  0  0
   10.6120    1.7760   61.3790 C   0  0  0  0  0  0  0  0  0  0  0  0
   14.5870    1.0560   58.4300 C   0  0  0  0  0  0  0  0  0  0  0  0
   15.2740    0.2120   59.4640 C   0  0  0  0  0  0  0  0  0  0  0  0
   18.8300   -0.7500   60.3340 N   0  0  0  0  0  0  0  0  0  0  0  0
   17.4760   -0.6360   60.3720 C   0  0  0  0  0  0  0  0  0  0  0  0
   16.8010    0.0930   59.3870 C   0  0  0  0  0  0  0  0  0  0  0  0
   17.4810    0.6840   58.3460 C   0  0  0  0  0  0  0  0  0  0  0  0
   18.8470    0.5460   58.2950 C   0  0  0  0  0  0  0  0  0  0  0  0
   19.4740   -0.1890   59.3100 C   0  0  0  0  0  0  0  0  0  0  0  0
   20.7410    0.5060   56.6060 C   0  0  0  0  0  0  0  0  0  0  0  0
   19.5780    1.1660   57.2410 N   0  0  0  0  0  0  0  0  0  0  0  0
   19.2310    2.5420   56.9320 C   0  0  0  0  0  0  0  0  0  0  0  0
   19.1000    2.7860   55.4590 C   0  0  0  0  0  0  0  0  0  0  0  0
   18.8550    4.2290   55.2650 N   0  0  0  0  0  0  0  0  0  0  0  0
   19.9240    5.2190   55.2910 C   0  0  0  0  0  0  0  0  0  0  0  0
  2  1  2  0
  7  1  1  0
  3  2  1  0
  4  2  1  0
  5  4  2  0
  6  5  1  0
  8  5  1  0
  7  6  2  0
  9  7  1  0
 10  9  1  0
 13 10  1  0
 12 11  2  0
 16 11  1  0
 13 12  1  0
 14 13  2  0
 15 14  1  0
 16 15  2  0
 18 15  1  0
 18 17  1  0
 19 18  1  0
 20 19  1  0
 21 20  1  0
 22 21  1  0
A    1
N01
A    2
C02
A    3
N02
A    4
C03
A    5
C04
A    6
C05
A    7
C06
A    8
C07
A    9
C08
A   10
C09
A   11
N11
A   12
C12
A   13
C13
A   14
C14
A   15
C15
A   16
C16
A   17
C17
A   18
N17
A   19
C18
A   20
C19
A   21
N20
A   22
C21
M  END
>  <Id>  (118) 
4UH1_EXI_B_800

>  <ChainId>  (118) 
B

>  <AsymId>  (118) 
I

>  <SeqNum>  (118) 
800

>  <Name>  (118) 
N1-(5-(2-(6-Amino-4-methylpyridin-2-yl)ethyl)pyridin-3-yl)-N1,N2-dimethylethane-1,2-diamine

>  <SystematicName>  (118) 
N'-[5-[2-(6-azanyl-4-methyl-pyridin-2-yl)ethyl]pyridin-3-yl]-N,N'-dimethyl-ethane-1,2-diamine

>  <Synonyms>  (118) 


>  <Type>  (118) 
NON-POLYMER

>  <Formula>  (118) 
C17 H25 N5

>  <ObservedFormula>  (118) 
C17 N5

>  <MolecularWeight>  (118) 
299.414

>  <ModifiedDate>  (118) 
2015-06-19

>  <Parent>  (118) 


>  <OneLetterCode>  (118) 


>  <SubcomponentList>  (118) 


>  <AmbiguousFlag>  (118) 
N

>  <InsertionCode>  (118) 


>  <InstanceId>  (118) 
4UH1_EXI_B_800

>  <ChemCompId>  (118) 
EXI

>  <PdbId>  (118) 
4UH1

>  <ResidueNumber>  (118) 
800

>  <InChI>  (118) 
InChI=1S/C17H25N5/c1-13-8-15(21-17(18)9-13)5-4-14-10-16(12-20-11-14)22(3)7-6-19-2/h8-12,19H,4-7H2,1-3H3,(H2,18,21)

>  <InChIKey>  (118) 
BAILAIZRWKFZJT-UHFFFAOYSA-N

>  <SMILES>  (118) 
Cc1cc(nc(c1)N)CCc2cc(cnc2)N(C)CCNC

>  <MissingHeavyAtoms>  (118) 
0

>  <Model>  (118) 
1

>  <AltIds>  (118) 


>  <pKI>  (118) 
7.77

>  <ChemblID>  (118) 
CHEMBL3586661

>  <standardized_canonical_smiles>  (118) 
CNCCN(C)c1cncc(CCc2cc(C)cc(N)n2)c1

$$$$
5G0N_EXI_B_800
     RDKit          3D

 22 23  0  0  0  0  0  0  0  0999 V2000
   12.0560   -0.3230   58.2150 N   0  0  0  0  0  0  0  0  0  0  0  0
   11.0180   -0.9190   58.8160 C   0  0  0  0  0  0  0  0  0  0  0  0
   10.5820   -2.0970   58.2900 N   0  0  0  0  0  0  0  0  0  0  0  0
   10.4320   -0.3190   59.9490 C   0  0  0  0  0  0  0  0  0  0  0  0
   10.9350    0.8940   60.4300 C   0  0  0  0  0  0  0  0  0  0  0  0
   11.9990    1.4820   59.7700 C   0  0  0  0  0  0  0  0  0  0  0  0
   12.5440    0.8450   58.6670 C   0  0  0  0  0  0  0  0  0  0  0  0
   10.3470    1.6050   61.6260 C   0  0  0  0  0  0  0  0  0  0  0  0
   13.6990    1.4590   57.9390 C   0  0  0  0  0  0  0  0  0  0  0  0
   15.0250    1.3430   58.6770 C   0  0  0  0  0  0  0  0  0  0  0  0
   15.9150    4.5090   56.8900 N   0  0  0  0  0  0  0  0  0  0  0  0
   15.2490    3.5690   57.5670 C   0  0  0  0  0  0  0  0  0  0  0  0
   15.8520    2.3600   57.9210 C   0  0  0  0  0  0  0  0  0  0  0  0
   17.1700    2.1150   57.5520 C   0  0  0  0  0  0  0  0  0  0  0  0
   17.8400    3.1140   56.8490 C   0  0  0  0  0  0  0  0  0  0  0  0
   17.1850    4.3030   56.5280 C   0  0  0  0  0  0  0  0  0  0  0  0
   19.7350    1.6090   56.3300 C   0  0  0  0  0  0  0  0  0  0  0  0
   19.1670    2.9460   56.4390 N   0  0  0  0  0  0  0  0  0  0  0  0
   19.9610    4.1260   56.1100 C   0  0  0  0  0  0  0  0  0  0  0  0
   20.3340    3.9530   54.6410 C   0  0  0  0  0  0  0  0  0  0  0  0
   19.6940    4.9590   53.8180 N   0  0  0  0  0  0  0  0  0  0  0  0
   20.0280    6.3560   54.0050 C   0  0  0  0  0  0  0  0  0  0  0  0
  2  1  2  0
  7  1  1  0
  3  2  1  0
  4  2  1  0
  5  4  2  0
  6  5  1  0
  8  5  1  0
  7  6  2  0
  9  7  1  0
 10  9  1  0
 13 10  1  0
 12 11  2  0
 16 11  1  0
 13 12  1  0
 14 13  2  0
 15 14  1  0
 16 15  2  0
 18 15  1  0
 18 17  1  0
 19 18  1  0
 20 19  1  0
 21 20  1  0
 22 21  1  0
A    1
N01
A    2
C02
A    3
N02
A    4
C03
A    5
C04
A    6
C05
A    7
C06
A    8
C07
A    9
C08
A   10
C09
A   11
N11
A   12
C12
A   13
C13
A   14
C14
A   15
C15
A   16
C16
A   17
C17
A   18
N17
A   19
C18
A   20
C19
A   21
N20
A   22
C21
M  END
>  <Id>  (119) 
5G0N_EXI_B_800

>  <ChainId>  (119) 
B

>  <AsymId>  (119) 
J

>  <SeqNum>  (119) 
800

>  <Name>  (119) 
N1-(5-(2-(6-Amino-4-methylpyridin-2-yl)ethyl)pyridin-3-yl)-N1,N2-dimethylethane-1,2-diamine

>  <SystematicName>  (119) 
N'-[5-[2-(6-azanyl-4-methyl-pyridin-2-yl)ethyl]pyridin-3-yl]-N,N'-dimethyl-ethane-1,2-diamine

>  <Synonyms>  (119) 


>  <Type>  (119) 
NON-POLYMER

>  <Formula>  (119) 
C17 H25 N5

>  <ObservedFormula>  (119) 
C17 N5

>  <MolecularWeight>  (119) 
299.414

>  <ModifiedDate>  (119) 
2015-06-19

>  <Parent>  (119) 


>  <OneLetterCode>  (119) 


>  <SubcomponentList>  (119) 


>  <AmbiguousFlag>  (119) 
N

>  <InsertionCode>  (119) 


>  <InstanceId>  (119) 
5G0N_EXI_B_800

>  <ChemCompId>  (119) 
EXI

>  <PdbId>  (119) 
5G0N

>  <ResidueNumber>  (119) 
800

>  <InChI>  (119) 
InChI=1S/C17H25N5/c1-13-8-15(21-17(18)9-13)5-4-14-10-16(12-20-11-14)22(3)7-6-19-2/h8-12,19H,4-7H2,1-3H3,(H2,18,21)

>  <InChIKey>  (119) 
BAILAIZRWKFZJT-UHFFFAOYSA-N

>  <SMILES>  (119) 
Cc1cc(nc(c1)N)CCc2cc(cnc2)N(C)CCNC

>  <MissingHeavyAtoms>  (119) 
0

>  <Model>  (119) 
1

>  <AltIds>  (119) 


>  <pKI>  (119) 
7.77

>  <ChemblID>  (119) 
CHEMBL3586661

>  <standardized_canonical_smiles>  (119) 
CNCCN(C)c1cncc(CCc2cc(C)cc(N)n2)c1

$$$$
4UH2_S84_B_800
     RDKit          3D

 26 27  0  0  0  0  0  0  0  0999 V2000
   17.5700   -0.2300   54.7400 F   0  0  0  0  0  0  0  0  0  0  0  0
   18.5380    0.5410   55.2210 C   0  0  0  0  0  0  0  0  0  0  0  0
   19.5780   -0.2160   55.5320 F   0  0  0  0  0  0  0  0  0  0  0  0
   18.8800    1.4220   54.2950 F   0  0  0  0  0  0  0  0  0  0  0  0
   18.0410    1.2680   56.4440 C   0  0  0  0  0  0  0  0  0  0  0  0
   18.7080    2.3750   56.9800 C   0  0  0  0  0  0  0  0  0  0  0  0
   18.2080    3.0140   58.1200 C   0  0  0  0  0  0  0  0  0  0  0  0
   18.8590    4.1310   58.6690 N   0  0  0  0  0  0  0  0  0  0  0  0
   19.7940    3.9830   59.7730 C   0  0  0  0  0  0  0  0  0  0  0  0
   18.6020    5.4570   58.1210 C   0  0  0  0  0  0  0  0  0  0  0  0
   17.8190    6.2120   59.1910 C   0  0  0  0  0  0  0  0  0  0  0  0
   17.4220    7.5440   58.6890 N   0  0  0  0  0  0  0  0  0  0  0  0
   18.5910    8.2940   58.1890 C   0  0  0  0  0  0  0  0  0  0  0  0
   16.8760    0.8130   57.0480 C   0  0  0  0  0  0  0  0  0  0  0  0
   16.3810    1.4520   58.1750 C   0  0  0  0  0  0  0  0  0  0  0  0
   17.0380    2.5510   58.7120 C   0  0  0  0  0  0  0  0  0  0  0  0
   15.1160    0.9400   58.8000 C   0  0  0  0  0  0  0  0  0  0  0  0
   13.9130    1.5270   58.0730 C   0  0  0  0  0  0  0  0  0  0  0  0
   12.7210    0.9180   58.7570 C   0  0  0  0  0  0  0  0  0  0  0  0
   12.2450   -0.2720   58.3420 N   0  0  0  0  0  0  0  0  0  0  0  0
   11.1900   -0.8470   58.9490 C   0  0  0  0  0  0  0  0  0  0  0  0
   10.7410   -2.0360   58.4880 N   0  0  0  0  0  0  0  0  0  0  0  0
   10.5790   -0.2290   60.0450 C   0  0  0  0  0  0  0  0  0  0  0  0
   11.0680    0.9910   60.4970 C   0  0  0  0  0  0  0  0  0  0  0  0
   10.4390    1.6970   61.6660 C   0  0  0  0  0  0  0  0  0  0  0  0
   12.1490    1.5640   59.8450 C   0  0  0  0  0  0  0  0  0  0  0  0
  2  1  1  0
  3  2  1  0
  4  2  1  0
  5  2  1  0
  6  5  2  0
 14  5  1  0
  7  6  1  0
  8  7  1  0
 16  7  2  0
  9  8  1  0
 10  8  1  0
 11 10  1  0
 12 11  1  0
 13 12  1  0
 15 14  2  0
 16 15  1  0
 17 15  1  0
 18 17  1  0
 19 18  1  0
 20 19  2  0
 26 19  1  0
 21 20  1  0
 22 21  1  0
 23 21  2  0
 24 23  1  0
 25 24  1  0
 26 24  2  0
A    1
F20
A    2
C17
A    3
F18
A    4
F19
A    5
C13
A    6
C14
A    7
C15
A    8
N22
A    9
C21
A   10
C23
A   11
C24
A   12
N25
A   13
C26
A   14
C12
A   15
C11
A   16
C16
A   17
C09
A   18
C08
A   19
C06
A   20
N01
A   21
C02
A   22
N02
A   23
C03
A   24
C04
A   25
C07
A   26
C05
M  END
>  <Id>  (120) 
4UH2_S84_B_800

>  <ChainId>  (120) 
B

>  <AsymId>  (120) 
I

>  <SeqNum>  (120) 
800

>  <Name>  (120) 
N1-(3-(2-(6-AMINO-4-METHYLPYRIDIN-2-YL)ETHYL)-5-(TRIFLUOROMETHYL)PHENYL)-N1,N2-DIMETHYLETHANE-1,2-DIAMINE

>  <SystematicName>  (120) 
N'-[3-[2-(6-azanyl-4-methyl-pyridin-2-yl)ethyl]-5-(trifluoromethyl)phenyl]-N,N'-dimethyl-ethane-1,2-diamine

>  <Synonyms>  (120) 


>  <Type>  (120) 
non-polymer

>  <Formula>  (120) 
C19 H25 F3 N4

>  <ObservedFormula>  (120) 
C19 F3 N4

>  <MolecularWeight>  (120) 
366.424

>  <ModifiedDate>  (120) 
2015-07-10

>  <Parent>  (120) 


>  <OneLetterCode>  (120) 


>  <SubcomponentList>  (120) 


>  <AmbiguousFlag>  (120) 
N

>  <InsertionCode>  (120) 


>  <InstanceId>  (120) 
4UH2_S84_B_800

>  <ChemCompId>  (120) 
S84

>  <PdbId>  (120) 
4UH2

>  <ResidueNumber>  (120) 
800

>  <InChI>  (120) 
InChI=1S/C19H25F3N4/c1-13-8-16(25-18(23)9-13)5-4-14-10-15(19(20,21)22)12-17(11-14)26(3)7-6-24-2/h8-12,24H,4-7H2,1-3H3,(H2,23,25)

>  <InChIKey>  (120) 
HEAUHZMVJKXAQR-UHFFFAOYSA-N

>  <SMILES>  (120) 
Cc1cc(nc(c1)N)CCc2cc(cc(c2)N(C)CCNC)C(F)(F)F

>  <MissingHeavyAtoms>  (120) 
0

>  <Model>  (120) 
1

>  <AltIds>  (120) 


>  <pKI>  (120) 
7.17

>  <ChemblID>  (120) 
CHEMBL3586662

>  <standardized_canonical_smiles>  (120) 
CNCCN(C)c1cc(CCc2cc(C)cc(N)n2)cc(C(F)(F)F)c1

$$$$
4UH3_S85_B_800
     RDKit          3D

 23 24  0  0  0  0  0  0  0  0999 V2000
   12.1490    6.0050   59.0370 F   0  0  0  0  0  0  0  0  0  0  0  0
   13.2890    5.3990   58.5720 C   0  0  0  0  0  0  0  0  0  0  0  0
   14.5230    6.1110   58.4810 C   0  0  0  0  0  0  0  0  0  0  0  0
   15.7330    5.4880   58.0320 C   0  0  0  0  0  0  0  0  0  0  0  0
   16.9580    6.2500   57.9950 N   0  0  0  0  0  0  0  0  0  0  0  0
   16.9600    7.6900   58.3370 C   0  0  0  0  0  0  0  0  0  0  0  0
   18.2530    5.6410   57.6340 C   0  0  0  0  0  0  0  0  0  0  0  0
   18.3750    5.5650   56.0820 C   0  0  0  0  0  0  0  0  0  0  0  0
   17.7700    6.7260   55.3680 N   0  0  0  0  0  0  0  0  0  0  0  0
   18.7430    7.7720   54.9390 C   0  0  0  0  0  0  0  0  0  0  0  0
   13.2450    4.0340   58.1800 C   0  0  0  0  0  0  0  0  0  0  0  0
   14.4300    3.3980   57.7420 C   0  0  0  0  0  0  0  0  0  0  0  0
   15.6550    4.1140   57.6300 C   0  0  0  0  0  0  0  0  0  0  0  0
   14.3580    1.9030   57.4160 C   0  0  0  0  0  0  0  0  0  0  0  0
   14.4970    1.0100   58.6840 C   0  0  0  0  0  0  0  0  0  0  0  0
   13.0910    0.5930   59.1970 C   0  0  0  0  0  0  0  0  0  0  0  0
   12.4410   -0.4570   58.6270 N   0  0  0  0  0  0  0  0  0  0  0  0
   11.2230   -0.8870   59.0060 C   0  0  0  0  0  0  0  0  0  0  0  0
   10.7240   -1.9860   58.3690 N   0  0  0  0  0  0  0  0  0  0  0  0
   10.5390   -0.2410   60.0670 C   0  0  0  0  0  0  0  0  0  0  0  0
   11.1510    0.8530   60.7050 C   0  0  0  0  0  0  0  0  0  0  0  0
   10.4640    1.6220   61.8240 C   0  0  0  0  0  0  0  0  0  0  0  0
   12.4270    1.2590   60.2520 C   0  0  0  0  0  0  0  0  0  0  0  0
  2  1  1  0
  3  2  2  0
 11  2  1  0
  4  3  1  0
  5  4  1  0
 13  4  2  0
  6  5  1  0
  7  5  1  0
  8  7  1  0
  9  8  1  0
 10  9  1  0
 12 11  2  0
 13 12  1  0
 14 12  1  0
 15 14  1  0
 16 15  1  0
 17 16  2  0
 23 16  1  0
 18 17  1  0
 19 18  1  0
 20 18  2  0
 21 20  1  0
 22 21  1  0
 23 21  2  0
A    1
F17
A    2
C13
A    3
C14
A    4
C15
A    5
N18
A    6
C19
A    7
C20
A    8
C21
A    9
N22
A   10
C23
A   11
C12
A   12
C11
A   13
C16
A   14
C09
A   15
C08
A   16
C06
A   17
N01
A   18
C02
A   19
N02
A   20
C03
A   21
C04
A   22
C07
A   23
C05
M  END
>  <Id>  (121) 
4UH3_S85_B_800

>  <ChainId>  (121) 
B

>  <AsymId>  (121) 
I

>  <SeqNum>  (121) 
800

>  <Name>  (121) 
N1-(3-(2-(6-AMINO-4-METHYLPYRIDIN-2-YL)ETHYL)-5-FLUOROPHENYL)-N1,N2-DIMETHYLETHANE-1,2-DIAMINE

>  <SystematicName>  (121) 
N'-[3-[2-(6-azanyl-4-methyl-pyridin-2-yl)ethyl]-5-fluoranyl-phenyl]-N,N'-dimethyl-ethane-1,2-diamine

>  <Synonyms>  (121) 


>  <Type>  (121) 
non-polymer

>  <Formula>  (121) 
C18 H25 F N4

>  <ObservedFormula>  (121) 
C18 F N4

>  <MolecularWeight>  (121) 
316.416

>  <ModifiedDate>  (121) 
2015-07-10

>  <Parent>  (121) 


>  <OneLetterCode>  (121) 


>  <SubcomponentList>  (121) 


>  <AmbiguousFlag>  (121) 
N

>  <InsertionCode>  (121) 


>  <InstanceId>  (121) 
4UH3_S85_B_800

>  <ChemCompId>  (121) 
S85

>  <PdbId>  (121) 
4UH3

>  <ResidueNumber>  (121) 
800

>  <InChI>  (121) 
InChI=1S/C18H25FN4/c1-13-8-16(22-18(20)9-13)5-4-14-10-15(19)12-17(11-14)23(3)7-6-21-2/h8-12,21H,4-7H2,1-3H3,(H2,20,22)

>  <InChIKey>  (121) 
ZVNKMLXKHZSKMN-UHFFFAOYSA-N

>  <SMILES>  (121) 
Cc1cc(nc(c1)N)CCc2cc(cc(c2)F)N(C)CCNC

>  <MissingHeavyAtoms>  (121) 
0

>  <Model>  (121) 
1

>  <AltIds>  (121) 


>  <pKI>  (121) 
7.47

>  <ChemblID>  (121) 
CHEMBL3586663

>  <standardized_canonical_smiles>  (121) 
CNCCN(C)c1cc(F)cc(CCc2cc(C)cc(N)n2)c1

$$$$
4UH4_Q1T_B_800
     RDKit          3D

 24 25  0  0  0  0  0  0  0  0999 V2000
   12.2530   -0.3610   58.2590 N   0  0  0  0  0  0  0  0  0  0  0  0
   11.1330   -0.9580   58.7800 C   0  0  0  0  0  0  0  0  0  0  0  0
   10.6840   -2.1100   58.2210 N   0  0  0  0  0  0  0  0  0  0  0  0
   10.4720   -0.3940   59.8900 C   0  0  0  0  0  0  0  0  0  0  0  0
   10.9820    0.7900   60.4440 C   0  0  0  0  0  0  0  0  0  0  0  0
   12.1110    1.3780   59.8860 C   0  0  0  0  0  0  0  0  0  0  0  0
   12.7470    0.7980   58.7770 C   0  0  0  0  0  0  0  0  0  0  0  0
   10.3160    1.4630   61.6310 C   0  0  0  0  0  0  0  0  0  0  0  0
   14.0200    1.4270   58.2080 C   0  0  0  0  0  0  0  0  0  0  0  0
   15.2080    0.6570   58.7790 C   0  0  0  0  0  0  0  0  0  0  0  0
   16.5250    1.0390   58.1370 C   0  0  0  0  0  0  0  0  0  0  0  0
   17.4050    1.8880   58.8100 C   0  0  0  0  0  0  0  0  0  0  0  0
   18.6080    2.2800   58.2090 C   0  0  0  0  0  0  0  0  0  0  0  0
   18.9650    1.7960   56.9340 C   0  0  0  0  0  0  0  0  0  0  0  0
   18.0810    0.9230   56.2450 C   0  0  0  0  0  0  0  0  0  0  0  0
   16.8710    0.5540   56.8630 C   0  0  0  0  0  0  0  0  0  0  0  0
   19.3850    3.0520   58.9010 C   0  0  0  0  0  0  0  0  0  0  0  0
   20.1170    3.6900   59.5440 N   0  0  0  0  0  0  0  0  0  0  0  0
   17.5690   -0.7100   54.4020 C   0  0  0  0  0  0  0  0  0  0  0  0
   18.3670    0.4030   54.9460 N   0  0  0  0  0  0  0  0  0  0  0  0
   19.4710    0.9600   54.1420 C   0  0  0  0  0  0  0  0  0  0  0  0
   18.8860    1.7640   52.9630 C   0  0  0  0  0  0  0  0  0  0  0  0
   18.3120    3.0680   53.3070 N   0  0  0  0  0  0  0  0  0  0  0  0
   19.1330    4.0670   53.9830 C   0  0  0  0  0  0  0  0  0  0  0  0
  2  1  2  0
  7  1  1  0
  3  2  1  0
  4  2  1  0
  5  4  2  0
  6  5  1  0
  8  5  1  0
  7  6  2  0
  9  7  1  0
 10  9  1  0
 11 10  1  0
 12 11  2  0
 16 11  1  0
 13 12  1  0
 14 13  2  0
 17 13  1  0
 15 14  1  0
 16 15  2  0
 20 15  1  0
 18 17  3  0
 20 19  1  0
 21 20  1  0
 22 21  1  0
 23 22  1  0
 24 23  1  0
A    1
N01
A    2
C02
A    3
N02
A    4
C03
A    5
C04
A    6
C05
A    7
C06
A    8
C07
A    9
C08
A   10
C09
A   11
C11
A   12
C12
A   13
C13
A   14
C14
A   15
C15
A   16
C16
A   17
C17
A   18
N18
A   19
C19
A   20
N19
A   21
C20
A   22
C21
A   23
N22
A   24
C23
M  END
>  <Id>  (122) 
4UH4_Q1T_B_800

>  <ChainId>  (122) 
B

>  <AsymId>  (122) 
J

>  <SeqNum>  (122) 
800

>  <Name>  (122) 
3-(2-(6-AMINO-4-METHYLPYRIDIN-2-YL)ETHYL)-5-(METHYL(2-(METHYLAMINO)ETHYL)AMINO)BENZONITRILE

>  <SystematicName>  (122) 
3-[2-(6-azanyl-4-methyl-pyridin-2-yl)ethyl]-5-[methyl-[2-(methylamino)ethyl]amino]benzenecarbonitrile

>  <Synonyms>  (122) 


>  <Type>  (122) 
non-polymer

>  <Formula>  (122) 
C19 H25 N5

>  <ObservedFormula>  (122) 
C19 N5

>  <MolecularWeight>  (122) 
323.435

>  <ModifiedDate>  (122) 
2015-06-19

>  <Parent>  (122) 


>  <OneLetterCode>  (122) 


>  <SubcomponentList>  (122) 


>  <AmbiguousFlag>  (122) 
N

>  <InsertionCode>  (122) 


>  <InstanceId>  (122) 
4UH4_Q1T_B_800

>  <ChemCompId>  (122) 
Q1T

>  <PdbId>  (122) 
4UH4

>  <ResidueNumber>  (122) 
800

>  <InChI>  (122) 
InChI=1S/C19H25N5/c1-14-8-17(23-19(21)9-14)5-4-15-10-16(13-20)12-18(11-15)24(3)7-6-22-2/h8-12,22H,4-7H2,1-3H3,(H2,21,23)

>  <InChIKey>  (122) 
RYFZEWNGJTVNMY-UHFFFAOYSA-N

>  <SMILES>  (122) 
Cc1cc(nc(c1)N)CCc2cc(cc(c2)N(C)CCNC)C#N

>  <MissingHeavyAtoms>  (122) 
0

>  <Model>  (122) 
1

>  <AltIds>  (122) 


>  <pKI>  (122) 
7.62

>  <ChemblID>  (122) 
CHEMBL3586664

>  <standardized_canonical_smiles>  (122) 
CNCCN(C)c1cc(C#N)cc(CCc2cc(C)cc(N)n2)c1

$$$$
5ADE_XEB_B_800
     RDKit          3D

 23 25  0  0  0  0  0  0  0  0999 V2000
   12.4030    0.0760   58.3220 N   0  0  0  0  0  0  0  0  0  0  0  0
   11.3970   -0.4810   59.0180 C   0  0  0  0  0  0  0  0  0  0  0  0
   11.2350   -1.8290   58.9190 N   0  0  0  0  0  0  0  0  0  0  0  0
   10.5700    0.3320   59.8150 C   0  0  0  0  0  0  0  0  0  0  0  0
   10.7740    1.7140   59.8660 C   0  0  0  0  0  0  0  0  0  0  0  0
   11.8270    2.2590   59.1240 C   0  0  0  0  0  0  0  0  0  0  0  0
   12.1040    3.6290   59.1220 C   0  0  0  0  0  0  0  0  0  0  0  0
   13.1760    4.1350   58.3660 C   0  0  0  0  0  0  0  0  0  0  0  0
   13.9770    3.2720   57.6140 C   0  0  0  0  0  0  0  0  0  0  0  0
   13.6910    1.9150   57.6150 C   0  0  0  0  0  0  0  0  0  0  0  0
   12.6310    1.4080   58.3590 C   0  0  0  0  0  0  0  0  0  0  0  0
   15.1590    3.6970   56.7670 C   0  0  0  0  0  0  0  0  0  0  0  0
   15.6870    5.0090   56.9490 O   0  0  0  0  0  0  0  0  0  0  0  0
   16.6440    5.3920   56.0310 C   0  0  0  0  0  0  0  0  0  0  0  0
   17.5170    4.4500   55.4900 C   0  0  0  0  0  0  0  0  0  0  0  0
   18.4810    4.8330   54.5540 C   0  0  0  0  0  0  0  0  0  0  0  0
   18.5970    6.1660   54.1460 C   0  0  0  0  0  0  0  0  0  0  0  0
   17.7230    7.1090   54.6870 C   0  0  0  0  0  0  0  0  0  0  0  0
   16.7670    6.7150   55.6250 C   0  0  0  0  0  0  0  0  0  0  0  0
   19.8570    6.6330   52.9330 Cl  0  0  0  0  0  0  0  0  0  0  0  0
   17.8020    8.5690   54.2890 C   0  0  0  0  0  0  0  0  0  0  0  0
   19.1070    8.8630   53.6690 N   0  0  0  0  0  0  0  0  0  0  0  0
   19.5730   10.1840   54.1220 C   0  0  0  0  0  0  0  0  0  0  0  0
  2  1  2  0
 11  1  1  0
  3  2  1  0
  4  2  1  0
  5  4  2  0
  6  5  1  0
  7  6  1  0
 11  6  2  0
  8  7  2  0
  9  8  1  0
 10  9  2  0
 12  9  1  0
 11 10  1  0
 13 12  1  0
 14 13  1  0
 15 14  2  0
 19 14  1  0
 16 15  1  0
 17 16  2  0
 18 17  1  0
 20 17  1  0
 19 18  2  0
 21 18  1  0
 22 21  1  0
 23 22  1  0
A    1
N01
A    2
C02
A    3
N02
A    4
C03
A    5
C04
A    6
C05
A    7
C06
A    8
C07
A    9
C08
A   10
C09
A   11
C10
A   12
C11
A   13
O12
A   14
C21
A   15
C22
A   16
C23
A   17
C24
A   18
C25
A   19
C26
A   20
CL
A   21
C28
A   22
N29
A   23
C30
M  END
>  <Id>  (123) 
5ADE_XEB_B_800

>  <ChainId>  (123) 
B

>  <AsymId>  (123) 
J

>  <SeqNum>  (123) 
800

>  <Name>  (123) 
7-[[4-chloranyl-3-(methylaminomethyl)phenoxy]methyl]quinolin-2-amine

>  <SystematicName>  (123) 
7-[[4-chloranyl-3-(methylaminomethyl)phenoxy]methyl]quinolin-2-amine

>  <Synonyms>  (123) 


>  <Type>  (123) 
NON-POLYMER

>  <Formula>  (123) 
C18 H18 Cl N3 O

>  <ObservedFormula>  (123) 
C18 Cl N3 O

>  <MolecularWeight>  (123) 
327.808

>  <ModifiedDate>  (123) 
2015-10-23

>  <Parent>  (123) 


>  <OneLetterCode>  (123) 


>  <SubcomponentList>  (123) 


>  <AmbiguousFlag>  (123) 
N

>  <InsertionCode>  (123) 


>  <InstanceId>  (123) 
5ADE_XEB_B_800

>  <ChemCompId>  (123) 
XEB

>  <PdbId>  (123) 
5ADE

>  <ResidueNumber>  (123) 
800

>  <InChI>  (123) 
InChI=1S/C18H18ClN3O/c1-21-10-14-9-15(5-6-16(14)19)23-11-12-2-3-13-4-7-18(20)22-17(13)8-12/h2-9,21H,10-11H2,1H3,(H2,20,22)

>  <InChIKey>  (123) 
SVDORCPNIHFYFA-UHFFFAOYSA-N

>  <SMILES>  (123) 
CNCc1cc(ccc1Cl)OCc2ccc3ccc(nc3c2)N

>  <MissingHeavyAtoms>  (123) 
0

>  <Model>  (123) 
1

>  <AltIds>  (123) 


>  <pKI>  (123) 
7.24

>  <ChemblID>  (123) 
CHEMBL3735289

>  <standardized_canonical_smiles>  (123) 
CNCc1cc(OCc2ccc3ccc(N)nc3c2)ccc1Cl

$$$$
5ADB_XEB_B_800
     RDKit          3D

 23 25  0  0  0  0  0  0  0  0999 V2000
   12.1060    0.0220   58.5040 N   0  0  0  0  0  0  0  0  0  0  0  0
   11.1460   -0.6160   59.2080 C   0  0  0  0  0  0  0  0  0  0  0  0
   10.9400   -1.9500   59.0210 N   0  0  0  0  0  0  0  0  0  0  0  0
   10.3730    0.1100   60.1220 C   0  0  0  0  0  0  0  0  0  0  0  0
   10.5620    1.4840   60.2940 C   0  0  0  0  0  0  0  0  0  0  0  0
   11.5530    2.1130   59.5440 C   0  0  0  0  0  0  0  0  0  0  0  0
   11.8000    3.4800   59.6760 C   0  0  0  0  0  0  0  0  0  0  0  0
   12.8050    4.0900   58.9250 C   0  0  0  0  0  0  0  0  0  0  0  0
   13.5540    3.3180   58.0380 C   0  0  0  0  0  0  0  0  0  0  0  0
   13.3010    1.9630   57.9080 C   0  0  0  0  0  0  0  0  0  0  0  0
   12.3100    1.3520   58.6570 C   0  0  0  0  0  0  0  0  0  0  0  0
   14.6500    3.8790   57.1710 C   0  0  0  0  0  0  0  0  0  0  0  0
   15.4970    4.8310   57.8000 O   0  0  0  0  0  0  0  0  0  0  0  0
   16.6220    5.1010   57.0690 C   0  0  0  0  0  0  0  0  0  0  0  0
   17.7280    4.2540   57.1080 C   0  0  0  0  0  0  0  0  0  0  0  0
   18.8500    4.5460   56.3310 C   0  0  0  0  0  0  0  0  0  0  0  0
   18.8600    5.6710   55.5030 C   0  0  0  0  0  0  0  0  0  0  0  0
   17.7440    6.5020   55.4540 C   0  0  0  0  0  0  0  0  0  0  0  0
   16.6330    6.2060   56.2330 C   0  0  0  0  0  0  0  0  0  0  0  0
   20.3160    6.0190   54.5110 Cl  0  0  0  0  0  0  0  0  0  0  0  0
   17.6700    7.7410   54.5900 C   0  0  0  0  0  0  0  0  0  0  0  0
   18.9990    8.2660   54.2550 N   0  0  0  0  0  0  0  0  0  0  0  0
   18.8540    9.7170   54.0170 C   0  0  0  0  0  0  0  0  0  0  0  0
  2  1  2  0
 11  1  1  0
  3  2  1  0
  4  2  1  0
  5  4  2  0
  6  5  1  0
  7  6  1  0
 11  6  2  0
  8  7  2  0
  9  8  1  0
 10  9  2  0
 12  9  1  0
 11 10  1  0
 13 12  1  0
 14 13  1  0
 15 14  2  0
 19 14  1  0
 16 15  1  0
 17 16  2  0
 18 17  1  0
 20 17  1  0
 19 18  2  0
 21 18  1  0
 22 21  1  0
 23 22  1  0
A    1
N01
A    2
C02
A    3
N02
A    4
C03
A    5
C04
A    6
C05
A    7
C06
A    8
C07
A    9
C08
A   10
C09
A   11
C10
A   12
C11
A   13
O12
A   14
C21
A   15
C22
A   16
C23
A   17
C24
A   18
C25
A   19
C26
A   20
CL
A   21
C28
A   22
N29
A   23
C30
M  END
>  <Id>  (124) 
5ADB_XEB_B_800

>  <ChainId>  (124) 
B

>  <AsymId>  (124) 
J

>  <SeqNum>  (124) 
800

>  <Name>  (124) 
7-[[4-chloranyl-3-(methylaminomethyl)phenoxy]methyl]quinolin-2-amine

>  <SystematicName>  (124) 
7-[[4-chloranyl-3-(methylaminomethyl)phenoxy]methyl]quinolin-2-amine

>  <Synonyms>  (124) 


>  <Type>  (124) 
NON-POLYMER

>  <Formula>  (124) 
C18 H18 Cl N3 O

>  <ObservedFormula>  (124) 
C18 Cl N3 O

>  <MolecularWeight>  (124) 
327.808

>  <ModifiedDate>  (124) 
2015-10-23

>  <Parent>  (124) 


>  <OneLetterCode>  (124) 


>  <SubcomponentList>  (124) 


>  <AmbiguousFlag>  (124) 
N

>  <InsertionCode>  (124) 


>  <InstanceId>  (124) 
5ADB_XEB_B_800

>  <ChemCompId>  (124) 
XEB

>  <PdbId>  (124) 
5ADB

>  <ResidueNumber>  (124) 
800

>  <InChI>  (124) 
InChI=1S/C18H18ClN3O/c1-21-10-14-9-15(5-6-16(14)19)23-11-12-2-3-13-4-7-18(20)22-17(13)8-12/h2-9,21H,10-11H2,1H3,(H2,20,22)

>  <InChIKey>  (124) 
SVDORCPNIHFYFA-UHFFFAOYSA-N

>  <SMILES>  (124) 
CNCc1cc(ccc1Cl)OCc2ccc3ccc(nc3c2)N

>  <MissingHeavyAtoms>  (124) 
0

>  <Model>  (124) 
1

>  <AltIds>  (124) 


>  <pKI>  (124) 
7.24

>  <ChemblID>  (124) 
CHEMBL3735289

>  <standardized_canonical_smiles>  (124) 
CNCc1cc(OCc2ccc3ccc(N)nc3c2)ccc1Cl

$$$$
5ADA_2SN_B_800
     RDKit          3D

 23 25  0  0  0  0  0  0  0  0999 V2000
   18.9940    7.5030   58.0940 C   0  0  0  0  0  0  0  0  0  0  0  0
   18.0980    7.4360   59.2620 N   0  0  0  0  0  0  0  0  0  0  0  0
   16.7300    7.8330   58.8670 C   0  0  0  0  0  0  0  0  0  0  0  0
   18.1670    6.1090   59.9410 C   0  0  0  0  0  0  0  0  0  0  0  0
   17.0610    4.6280   58.2430 C   0  0  0  0  0  0  0  0  0  0  0  0
   18.1800    4.9090   59.0160 C   0  0  0  0  0  0  0  0  0  0  0  0
   19.2910    4.0670   58.9510 C   0  0  0  0  0  0  0  0  0  0  0  0
   19.2760    2.9780   58.0850 C   0  0  0  0  0  0  0  0  0  0  0  0
   18.1480    2.7070   57.3120 C   0  0  0  0  0  0  0  0  0  0  0  0
   17.0340    3.5430   57.3870 C   0  0  0  0  0  0  0  0  0  0  0  0
   15.9140    3.3430   56.6550 N   0  0  0  0  0  0  0  0  0  0  0  0
   14.8070    4.2720   56.8120 C   0  0  0  0  0  0  0  0  0  0  0  0
   12.5990    1.5360   58.2200 C   0  0  0  0  0  0  0  0  0  0  0  0
   13.5750    2.2000   57.4890 C   0  0  0  0  0  0  0  0  0  0  0  0
   13.7330    3.5770   57.6150 C   0  0  0  0  0  0  0  0  0  0  0  0
   12.9050    4.2970   58.4800 C   0  0  0  0  0  0  0  0  0  0  0  0
   11.9270    3.6320   59.2200 C   0  0  0  0  0  0  0  0  0  0  0  0
   11.7760    2.2560   59.0850 C   0  0  0  0  0  0  0  0  0  0  0  0
   10.8030    1.5840   59.8100 C   0  0  0  0  0  0  0  0  0  0  0  0
   10.6880    0.2050   59.6600 C   0  0  0  0  0  0  0  0  0  0  0  0
   11.5160   -0.4850   58.7730 C   0  0  0  0  0  0  0  0  0  0  0  0
   11.3810   -1.8340   58.6240 N   0  0  0  0  0  0  0  0  0  0  0  0
   12.4590    0.1950   58.0810 N   0  0  0  0  0  0  0  0  0  0  0  0
  2  1  1  0
  3  2  1  0
  4  2  1  0
  6  4  1  0
  6  5  2  0
 10  5  1  0
  7  6  1  0
  8  7  2  0
  9  8  1  0
 10  9  2  0
 11 10  1  0
 12 11  1  0
 15 12  1  0
 14 13  2  0
 18 13  1  0
 23 13  1  0
 15 14  1  0
 16 15  2  0
 17 16  1  0
 18 17  2  0
 19 18  1  0
 20 19  2  0
 21 20  1  0
 22 21  1  0
 23 21  2  0
A    1
C26
A    2
N24
A    3
C25
A    4
C23
A    5
C16
A    6
C15
A    7
C14
A    8
C13
A    9
C12
A   10
C11
A   11
N22
A   12
C21
A   13
C10
A   14
C09
A   15
C08
A   16
C07
A   17
C06
A   18
C05
A   19
C04
A   20
C03
A   21
C02
A   22
N02
A   23
N01
M  END
>  <Id>  (125) 
5ADA_2SN_B_800

>  <ChainId>  (125) 
B

>  <AsymId>  (125) 
J

>  <SeqNum>  (125) 
800

>  <Name>  (125) 
7-[[[3-[(dimethylamino)methyl]phenyl]amino]methyl]quinolin-2-amine

>  <SystematicName>  (125) 
7-[[[3-[(dimethylamino)methyl]phenyl]amino]methyl]quinolin-2-amine

>  <Synonyms>  (125) 


>  <Type>  (125) 
non-polymer

>  <Formula>  (125) 
C19 H22 N4

>  <ObservedFormula>  (125) 
C19 N4

>  <MolecularWeight>  (125) 
306.405

>  <ModifiedDate>  (125) 
2015-10-23

>  <Parent>  (125) 


>  <OneLetterCode>  (125) 


>  <SubcomponentList>  (125) 


>  <AmbiguousFlag>  (125) 
N

>  <InsertionCode>  (125) 


>  <InstanceId>  (125) 
5ADA_2SN_B_800

>  <ChemCompId>  (125) 
2SN

>  <PdbId>  (125) 
5ADA

>  <ResidueNumber>  (125) 
800

>  <InChI>  (125) 
InChI=1S/C19H22N4/c1-23(2)13-15-4-3-5-17(10-15)21-12-14-6-7-16-8-9-19(20)22-18(16)11-14/h3-11,21H,12-13H2,1-2H3,(H2,20,22)

>  <InChIKey>  (125) 
KLVQNBMBSWDRJZ-UHFFFAOYSA-N

>  <SMILES>  (125) 
CN(C)Cc1cccc(c1)NCc2ccc3ccc(nc3c2)N

>  <MissingHeavyAtoms>  (125) 
0

>  <Model>  (125) 
1

>  <AltIds>  (125) 


>  <pKI>  (125) 
6.43

>  <ChemblID>  (125) 
CHEMBL3735825

>  <standardized_canonical_smiles>  (125) 
CN(C)Cc1cccc(NCc2ccc3ccc(N)nc3c2)c1

$$$$
5AD9_8VJ_B_800
     RDKit          3D

 23 25  0  0  0  0  0  0  0  0999 V2000
   21.5710    5.7070   52.8290 C   0  0  0  0  0  0  0  0  0  0  0  0
   21.1260    5.2640   54.1610 N   0  0  0  0  0  0  0  0  0  0  0  0
   22.2790    5.2580   55.0730 C   0  0  0  0  0  0  0  0  0  0  0  0
   20.0980    6.1900   54.6650 C   0  0  0  0  0  0  0  0  0  0  0  0
   16.6050    5.4790   55.9410 C   0  0  0  0  0  0  0  0  0  0  0  0
   17.6930    6.0950   55.3370 C   0  0  0  0  0  0  0  0  0  0  0  0
   18.9400    5.4760   55.3400 C   0  0  0  0  0  0  0  0  0  0  0  0
   19.1000    4.2300   55.9510 C   0  0  0  0  0  0  0  0  0  0  0  0
   18.0100    3.6080   56.5530 C   0  0  0  0  0  0  0  0  0  0  0  0
   16.7630    4.2360   56.5480 C   0  0  0  0  0  0  0  0  0  0  0  0
   15.6860    3.6360   57.1450 O   0  0  0  0  0  0  0  0  0  0  0  0
   14.3910    4.2060   57.0100 C   0  0  0  0  0  0  0  0  0  0  0  0
   12.3860    1.2290   58.2550 C   0  0  0  0  0  0  0  0  0  0  0  0
   13.2890    1.9990   57.5230 C   0  0  0  0  0  0  0  0  0  0  0  0
   13.4180    3.3610   57.7880 C   0  0  0  0  0  0  0  0  0  0  0  0
   12.6490    3.9640   58.7720 C   0  0  0  0  0  0  0  0  0  0  0  0
   11.7490    3.2030   59.5020 C   0  0  0  0  0  0  0  0  0  0  0  0
   11.6160    1.8470   59.2480 C   0  0  0  0  0  0  0  0  0  0  0  0
   10.7160    1.1050   59.9910 C   0  0  0  0  0  0  0  0  0  0  0  0
   10.6150   -0.2480   59.7190 C   0  0  0  0  0  0  0  0  0  0  0  0
   11.3760   -0.8430   58.7140 C   0  0  0  0  0  0  0  0  0  0  0  0
   11.2200   -2.1690   58.4840 N   0  0  0  0  0  0  0  0  0  0  0  0
   12.2560   -0.1040   58.0020 N   0  0  0  0  0  0  0  0  0  0  0  0
  2  1  1  0
  3  2  1  0
  4  2  1  0
  7  4  1  0
  6  5  2  0
 10  5  1  0
  7  6  1  0
  8  7  2  0
  9  8  1  0
 10  9  2  0
 11 10  1  0
 12 11  1  0
 15 12  1  0
 14 13  2  0
 18 13  1  0
 23 13  1  0
 15 14  1  0
 16 15  2  0
 17 16  1  0
 18 17  2  0
 19 18  1  0
 20 19  2  0
 21 20  1  0
 22 21  1  0
 23 21  2  0
A    1
C29
A    2
N28
A    3
C30
A    4
C27
A    5
C26
A    6
C25
A    7
C24
A    8
C23
A    9
C22
A   10
C21
A   11
O12
A   12
C11
A   13
C10
A   14
C09
A   15
C08
A   16
C07
A   17
C06
A   18
C05
A   19
C04
A   20
C03
A   21
C02
A   22
N02
A   23
N01
M  END
>  <Id>  (126) 
5AD9_8VJ_B_800

>  <ChainId>  (126) 
B

>  <AsymId>  (126) 
I

>  <SeqNum>  (126) 
800

>  <Name>  (126) 
7-[[4-[(dimethylamino)methyl]phenoxy]methyl]quinolin-2-amine

>  <SystematicName>  (126) 
7-[[4-[(dimethylamino)methyl]phenoxy]methyl]quinolin-2-amine

>  <Synonyms>  (126) 


>  <Type>  (126) 
non-polymer

>  <Formula>  (126) 
C19 H21 N3 O

>  <ObservedFormula>  (126) 
C19 N3 O

>  <MolecularWeight>  (126) 
307.39

>  <ModifiedDate>  (126) 
2015-10-23

>  <Parent>  (126) 


>  <OneLetterCode>  (126) 


>  <SubcomponentList>  (126) 


>  <AmbiguousFlag>  (126) 
N

>  <InsertionCode>  (126) 


>  <InstanceId>  (126) 
5AD9_8VJ_B_800

>  <ChemCompId>  (126) 
8VJ

>  <PdbId>  (126) 
5AD9

>  <ResidueNumber>  (126) 
800

>  <InChI>  (126) 
InChI=1S/C19H21N3O/c1-22(2)12-14-4-8-17(9-5-14)23-13-15-3-6-16-7-10-19(20)21-18(16)11-15/h3-11H,12-13H2,1-2H3,(H2,20,21)

>  <InChIKey>  (126) 
RSUBEKFHYBPGDT-UHFFFAOYSA-N

>  <SMILES>  (126) 
CN(C)Cc1ccc(cc1)OCc2ccc3ccc(nc3c2)N

>  <MissingHeavyAtoms>  (126) 
0

>  <Model>  (126) 
1

>  <AltIds>  (126) 


>  <pKI>  (126) 
6.55

>  <ChemblID>  (126) 
CHEMBL3736445

>  <standardized_canonical_smiles>  (126) 
CN(C)Cc1ccc(OCc2ccc3ccc(N)nc3c2)cc1

$$$$
5AD8_9M9_B_800
     RDKit          3D

 21 23  0  0  0  0  0  0  0  0999 V2000
   11.3630   -1.8850   58.5850 N   0  0  0  0  0  0  0  0  0  0  0  0
   18.7780    6.9380   54.5790 C   0  0  0  0  0  0  0  0  0  0  0  0
   12.6740    1.4380   58.1740 C   0  0  0  0  0  0  0  0  0  0  0  0
   13.0370    4.1810   58.3710 C   0  0  0  0  0  0  0  0  0  0  0  0
   11.5080   -0.5390   58.7230 C   0  0  0  0  0  0  0  0  0  0  0  0
   15.4810    5.1400   57.7320 O   0  0  0  0  0  0  0  0  0  0  0  0
   12.5040    0.1010   58.0710 N   0  0  0  0  0  0  0  0  0  0  0  0
   17.0750    6.7520   58.5130 C   0  0  0  0  0  0  0  0  0  0  0  0
   18.8970    5.5760   54.0350 N   0  0  0  0  0  0  0  0  0  0  0  0
   13.8960    3.4290   57.5700 C   0  0  0  0  0  0  0  0  0  0  0  0
   15.0280    4.1240   56.8380 C   0  0  0  0  0  0  0  0  0  0  0  0
   10.6430    0.1890   59.5420 C   0  0  0  0  0  0  0  0  0  0  0  0
   18.7000    7.6570   56.9960 C   0  0  0  0  0  0  0  0  0  0  0  0
   11.8200    2.1960   58.9680 C   0  0  0  0  0  0  0  0  0  0  0  0
   16.5490    5.9640   57.4810 C   0  0  0  0  0  0  0  0  0  0  0  0
   18.1740    6.8760   55.9630 C   0  0  0  0  0  0  0  0  0  0  0  0
   18.1530    7.6000   58.2750 C   0  0  0  0  0  0  0  0  0  0  0  0
   10.7900    1.5690   59.6570 C   0  0  0  0  0  0  0  0  0  0  0  0
   12.0030    3.5670   59.0700 C   0  0  0  0  0  0  0  0  0  0  0  0
   17.0980    6.0250   56.2030 C   0  0  0  0  0  0  0  0  0  0  0  0
   13.7160    2.0510   57.4840 C   0  0  0  0  0  0  0  0  0  0  0  0
 16  2  1  0
  7  3  2  0
 10 11  1  0
  8 15  2  0
 11  6  1  0
 18 14  2  0
 10 21  2  0
  5  1  1  0
 19  4  2  0
  4 10  1  0
 15 20  1  0
  7  5  1  0
 17  8  1  0
 16 13  1  0
 21  3  1  0
 13 17  2  0
  2  9  1  0
 14  3  1  0
 12 18  1  0
  5 12  2  0
  6 15  1  0
 14 19  1  0
 16 20  2  0
A    1
N02
A    2
C27
A    3
C10
A    4
C07
A    5
C02
A    6
O12
A    7
N01
A    8
C24
A    9
N28
A   10
C08
A   11
C11
A   12
C03
A   13
C22
A   14
C05
A   15
C25
A   16
C21
A   17
C23
A   18
C04
A   19
C06
A   20
C26
A   21
C09
M  END
>  <InstanceId>  (127) 
5AD8_9M9_B_800

>  <ChemCompId>  (127) 
9M9

>  <PdbId>  (127) 
5AD8

>  <ChainId>  (127) 
B

>  <ResidueNumber>  (127) 
800

>  <InsertionCode>  (127) 


>  <Model>  (127) 
1

>  <AltIds>  (127) 


>  <MissingHeavyAtoms>  (127) 
0

>  <ObservedFormula>  (127) 
C17 N3 O

>  <AsymId>  (127) 
I

>  <SeqNum>  (127) 
800

>  <Name>  (127) 
7-[[3-(aminomethyl)phenoxy]methyl]quinolin-2-amine

>  <SystematicName>  (127) 
7-[[3-(aminomethyl)phenoxy]methyl]quinolin-2-amine

>  <Synonyms>  (127) 


>  <Type>  (127) 
NON-POLYMER

>  <Formula>  (127) 
C17 H17 N3 O

>  <MolecularWeight>  (127) 
279.336

>  <ModifiedDate>  (127) 
2015-10-23

>  <Parent>  (127) 


>  <OneLetterCode>  (127) 


>  <SubcomponentList>  (127) 


>  <AmbiguousFlag>  (127) 
N

>  <InChI>  (127) 
null

>  <InChIKey>  (127) 
null

>  <SMILES>  (127) 
c1cc(cc(c1)OCc2ccc3ccc(nc3c2)N)CN

>  <pKI>  (127) 
6.8

>  <ChemblID>  (127) 
CHEMBL3736444

>  <standardized_canonical_smiles>  (127) 
NCc1cccc(OCc2ccc3ccc(N)nc3c2)c1

$$$$
5ADD_M85_B_800
     RDKit          3D

 22 24  0  0  0  0  0  0  0  0999 V2000
   11.7530    2.1940   59.5390 C   0  0  0  0  0  0  0  0  0  0  0  0
   12.9320    4.2170   59.0000 C   0  0  0  0  0  0  0  0  0  0  0  0
   13.7670    3.5170   58.1240 C   0  0  0  0  0  0  0  0  0  0  0  0
   14.8600    4.2640   57.3920 C   0  0  0  0  0  0  0  0  0  0  0  0
   18.8270    6.7260   55.3370 C   0  0  0  0  0  0  0  0  0  0  0  0
   17.7540    7.9380   58.8030 C   0  0  0  0  0  0  0  0  0  0  0  0
   16.2690    6.1740   58.0550 C   0  0  0  0  0  0  0  0  0  0  0  0
   18.1860    7.6130   54.3510 N   0  0  0  0  0  0  0  0  0  0  0  0
   11.9310    3.5620   59.7090 C   0  0  0  0  0  0  0  0  0  0  0  0
   12.5880    1.4950   58.6680 C   0  0  0  0  0  0  0  0  0  0  0  0
   16.9830    6.0590   56.8680 C   0  0  0  0  0  0  0  0  0  0  0  0
   13.5970    2.1490   57.9660 C   0  0  0  0  0  0  0  0  0  0  0  0
   15.1830    5.3590   58.2610 O   0  0  0  0  0  0  0  0  0  0  0  0
   18.4690    7.8170   57.6150 C   0  0  0  0  0  0  0  0  0  0  0  0
   18.7870    8.9560   54.4080 C   0  0  0  0  0  0  0  0  0  0  0  0
   10.6240    0.1460   60.0580 C   0  0  0  0  0  0  0  0  0  0  0  0
   11.4710   -0.5240   59.1540 C   0  0  0  0  0  0  0  0  0  0  0  0
   12.4320    0.1640   58.4980 N   0  0  0  0  0  0  0  0  0  0  0  0
   11.3580   -1.8670   58.9230 N   0  0  0  0  0  0  0  0  0  0  0  0
   18.0840    6.8770   56.6470 C   0  0  0  0  0  0  0  0  0  0  0  0
   10.7600    1.5190   60.2480 C   0  0  0  0  0  0  0  0  0  0  0  0
   16.6520    7.1140   59.0170 C   0  0  0  0  0  0  0  0  0  0  0  0
  5  8  1  0
  9  2  2  0
  1  9  1  0
 14  6  2  0
 17 19  1  0
 18 17  1  0
 21  1  2  0
  4 13  1  0
 20 14  1  0
 13  7  1  0
  7 11  1  0
 20  5  1  0
 20 11  2  0
  1 10  1  0
 12 10  1  0
 16 21  1  0
 22  7  2  0
  3 12  2  0
 17 16  2  0
  6 22  1  0
  2  3  1  0
  3  4  1  0
 18 10  2  0
  8 15  1  0
A    1
C05
A    2
C07
A    3
C08
A    4
C11
A    5
C27
A    6
C23
A    7
C25
A    8
N28
A    9
C06
A   10
C10
A   11
C26
A   12
C09
A   13
O12
A   14
C22
A   15
C29
A   16
C03
A   17
C02
A   18
N01
A   19
N02
A   20
C21
A   21
C04
A   22
C24
M  END
>  <InstanceId>  (128) 
5ADD_M85_B_800

>  <ChemCompId>  (128) 
M85

>  <PdbId>  (128) 
5ADD

>  <ChainId>  (128) 
B

>  <ResidueNumber>  (128) 
800

>  <InsertionCode>  (128) 


>  <Model>  (128) 
1

>  <AltIds>  (128) 


>  <MissingHeavyAtoms>  (128) 
0

>  <ObservedFormula>  (128) 
C18 N3 O

>  <AsymId>  (128) 
J

>  <SeqNum>  (128) 
800

>  <Name>  (128) 
7-[[3-(methylaminomethyl)phenoxy]methyl]quinolin-2-amine

>  <SystematicName>  (128) 
7-[[3-(methylaminomethyl)phenoxy]methyl]quinolin-2-amine

>  <Synonyms>  (128) 


>  <Type>  (128) 
NON-POLYMER

>  <Formula>  (128) 
C18 H19 N3 O

>  <MolecularWeight>  (128) 
293.363

>  <ModifiedDate>  (128) 
2015-10-23

>  <Parent>  (128) 


>  <OneLetterCode>  (128) 


>  <SubcomponentList>  (128) 


>  <AmbiguousFlag>  (128) 
N

>  <InChI>  (128) 
null

>  <InChIKey>  (128) 
null

>  <SMILES>  (128) 
CNCc1cccc(c1)OCc2ccc3ccc(nc3c2)N

>  <pKI>  (128) 
6.85

>  <ChemblID>  (128) 
CHEMBL3736143

>  <standardized_canonical_smiles>  (128) 
CNCc1cccc(OCc2ccc3ccc(N)nc3c2)c1

$$$$
5AD7_M85_B_800
     RDKit          3D

 22 24  0  0  0  0  0  0  0  0999 V2000
   12.5020    0.0990   58.3350 N   0  0  0  0  0  0  0  0  0  0  0  0
   11.5210   -0.5790   58.9640 C   0  0  0  0  0  0  0  0  0  0  0  0
   11.3920   -1.9240   58.7480 N   0  0  0  0  0  0  0  0  0  0  0  0
   10.6700    0.1080   59.8350 C   0  0  0  0  0  0  0  0  0  0  0  0
   10.8110    1.4870   60.0220 C   0  0  0  0  0  0  0  0  0  0  0  0
   11.8250    2.1520   59.3420 C   0  0  0  0  0  0  0  0  0  0  0  0
   12.0060    3.5180   59.5050 C   0  0  0  0  0  0  0  0  0  0  0  0
   13.0330    4.1540   58.8140 C   0  0  0  0  0  0  0  0  0  0  0  0
   13.8770    3.4360   57.9670 C   0  0  0  0  0  0  0  0  0  0  0  0
   13.6990    2.0670   57.8230 C   0  0  0  0  0  0  0  0  0  0  0  0
   12.6700    1.4300   58.5010 C   0  0  0  0  0  0  0  0  0  0  0  0
   14.9960    4.1470   57.2460 C   0  0  0  0  0  0  0  0  0  0  0  0
   15.2820    5.2880   58.0500 O   0  0  0  0  0  0  0  0  0  0  0  0
   17.9870    7.0610   56.3190 C   0  0  0  0  0  0  0  0  0  0  0  0
   18.3930    7.9390   57.3250 C   0  0  0  0  0  0  0  0  0  0  0  0
   17.7650    7.9360   58.5670 C   0  0  0  0  0  0  0  0  0  0  0  0
   16.7240    7.0430   58.7960 C   0  0  0  0  0  0  0  0  0  0  0  0
   16.3160    6.1540   57.7970 C   0  0  0  0  0  0  0  0  0  0  0  0
   16.9460    6.1630   56.5540 C   0  0  0  0  0  0  0  0  0  0  0  0
   18.6830    7.0770   54.9750 C   0  0  0  0  0  0  0  0  0  0  0  0
   18.7470    5.7100   54.4310 N   0  0  0  0  0  0  0  0  0  0  0  0
   19.8560    4.9770   55.0660 C   0  0  0  0  0  0  0  0  0  0  0  0
  2  1  2  0
 11  1  1  0
  3  2  1  0
  4  2  1  0
  5  4  2  0
  6  5  1  0
  7  6  1  0
 11  6  2  0
  8  7  2  0
  9  8  1  0
 10  9  2  0
 12  9  1  0
 11 10  1  0
 13 12  1  0
 18 13  1  0
 15 14  2  0
 19 14  1  0
 20 14  1  0
 16 15  1  0
 17 16  2  0
 18 17  1  0
 19 18  2  0
 21 20  1  0
 22 21  1  0
A    1
N01
A    2
C02
A    3
N02
A    4
C03
A    5
C04
A    6
C05
A    7
C06
A    8
C07
A    9
C08
A   10
C09
A   11
C10
A   12
C11
A   13
O12
A   14
C21
A   15
C22
A   16
C23
A   17
C24
A   18
C25
A   19
C26
A   20
C27
A   21
N28
A   22
C29
M  END
>  <Id>  (129) 
5AD7_M85_B_800

>  <ChainId>  (129) 
B

>  <AsymId>  (129) 
I

>  <SeqNum>  (129) 
800

>  <Name>  (129) 
7-[[3-(methylaminomethyl)phenoxy]methyl]quinolin-2-amine

>  <SystematicName>  (129) 
7-[[3-(methylaminomethyl)phenoxy]methyl]quinolin-2-amine

>  <Synonyms>  (129) 


>  <Type>  (129) 
NON-POLYMER

>  <Formula>  (129) 
C18 H19 N3 O

>  <ObservedFormula>  (129) 
C18 N3 O

>  <MolecularWeight>  (129) 
293.363

>  <ModifiedDate>  (129) 
2015-10-23

>  <Parent>  (129) 


>  <OneLetterCode>  (129) 


>  <SubcomponentList>  (129) 


>  <AmbiguousFlag>  (129) 
N

>  <InsertionCode>  (129) 


>  <InstanceId>  (129) 
5AD7_M85_B_800

>  <ChemCompId>  (129) 
M85

>  <PdbId>  (129) 
5AD7

>  <ResidueNumber>  (129) 
800

>  <InChI>  (129) 
InChI=1S/C18H19N3O/c1-20-11-13-3-2-4-16(9-13)22-12-14-5-6-15-7-8-18(19)21-17(15)10-14/h2-10,20H,11-12H2,1H3,(H2,19,21)

>  <InChIKey>  (129) 
QFZGTQOWVVISDX-UHFFFAOYSA-N

>  <SMILES>  (129) 
CNCc1cccc(c1)OCc2ccc3ccc(nc3c2)N

>  <MissingHeavyAtoms>  (129) 
0

>  <Model>  (129) 
1

>  <AltIds>  (129) 


>  <pKI>  (129) 
6.85

>  <ChemblID>  (129) 
CHEMBL3736143

>  <standardized_canonical_smiles>  (129) 
CNCc1cccc(OCc2ccc3ccc(N)nc3c2)c1

$$$$
5AD6_7M3_B_800
     RDKit          3D

 23 25  0  0  0  0  0  0  0  0999 V2000
   11.0940   -1.7110   58.8840 N   0  0  0  0  0  0  0  0  0  0  0  0
   11.3540   -0.3810   59.0270 C   0  0  0  0  0  0  0  0  0  0  0  0
   12.3620    0.1610   58.3080 N   0  0  0  0  0  0  0  0  0  0  0  0
   12.6460    1.4890   58.3950 C   0  0  0  0  0  0  0  0  0  0  0  0
   10.5990    0.4360   59.8940 C   0  0  0  0  0  0  0  0  0  0  0  0
   10.8590    1.8110   59.9880 C   0  0  0  0  0  0  0  0  0  0  0  0
   11.9110    2.3400   59.2270 C   0  0  0  0  0  0  0  0  0  0  0  0
   12.2530    3.6910   59.2750 C   0  0  0  0  0  0  0  0  0  0  0  0
   13.3130    4.1960   58.5020 C   0  0  0  0  0  0  0  0  0  0  0  0
   14.0490    3.3450   57.6730 C   0  0  0  0  0  0  0  0  0  0  0  0
   13.6950    1.9990   57.6350 C   0  0  0  0  0  0  0  0  0  0  0  0
   15.2180    3.7930   56.8090 C   0  0  0  0  0  0  0  0  0  0  0  0
   15.3060    5.1960   56.6040 O   0  0  0  0  0  0  0  0  0  0  0  0
   16.1640    5.9980   57.3300 C   0  0  0  0  0  0  0  0  0  0  0  0
   15.7250    6.5430   58.5330 C   0  0  0  0  0  0  0  0  0  0  0  0
   16.5550    7.3670   59.2850 C   0  0  0  0  0  0  0  0  0  0  0  0
   17.8350    7.6580   58.8460 C   0  0  0  0  0  0  0  0  0  0  0  0
   17.4550    6.2950   56.8820 C   0  0  0  0  0  0  0  0  0  0  0  0
   18.2850    7.1230   57.6480 C   0  0  0  0  0  0  0  0  0  0  0  0
   19.6890    7.4690   57.2070 C   0  0  0  0  0  0  0  0  0  0  0  0
   20.3990    8.0720   58.3520 N   0  0  0  0  0  0  0  0  0  0  0  0
   21.4830    7.1730   58.7820 C   0  0  0  0  0  0  0  0  0  0  0  0
   20.9300    9.4030   58.0020 C   0  0  0  0  0  0  0  0  0  0  0  0
  2  1  1  0
  3  2  2  0
  5  2  1  0
  4  3  1  0
  7  4  2  0
 11  4  1  0
  6  5  2  0
  7  6  1  0
  8  7  1  0
  9  8  2  0
 10  9  1  0
 11 10  2  0
 12 10  1  0
 13 12  1  0
 14 13  1  0
 15 14  2  0
 18 14  1  0
 16 15  1  0
 17 16  2  0
 19 17  1  0
 19 18  2  0
 20 19  1  0
 21 20  1  0
 22 21  1  0
 23 21  1  0
A    1
N02
A    2
C02
A    3
N01
A    4
C10
A    5
C03
A    6
C04
A    7
C05
A    8
C06
A    9
C07
A   10
C08
A   11
C09
A   12
C11
A   13
O12
A   14
C25
A   15
C24
A   16
C23
A   17
C22
A   18
C26
A   19
C21
A   20
C27
A   21
N28
A   22
C29
A   23
C30
M  END
>  <Id>  (130) 
5AD6_7M3_B_800

>  <ChainId>  (130) 
B

>  <AsymId>  (130) 
I

>  <SeqNum>  (130) 
800

>  <Name>  (130) 
7-[[3-[(dimethylamino)methyl]phenoxy]methyl]quinolin-2-amine

>  <SystematicName>  (130) 
7-[[3-[(dimethylamino)methyl]phenoxy]methyl]quinolin-2-amine

>  <Synonyms>  (130) 


>  <Type>  (130) 
non-polymer

>  <Formula>  (130) 
C19 H21 N3 O

>  <ObservedFormula>  (130) 
C19 N3 O

>  <MolecularWeight>  (130) 
307.39

>  <ModifiedDate>  (130) 
2015-10-23

>  <Parent>  (130) 


>  <OneLetterCode>  (130) 


>  <SubcomponentList>  (130) 


>  <AmbiguousFlag>  (130) 
N

>  <InsertionCode>  (130) 


>  <InstanceId>  (130) 
5AD6_7M3_B_800

>  <ChemCompId>  (130) 
7M3

>  <PdbId>  (130) 
5AD6

>  <ResidueNumber>  (130) 
800

>  <InChI>  (130) 
InChI=1S/C19H21N3O/c1-22(2)12-14-4-3-5-17(10-14)23-13-15-6-7-16-8-9-19(20)21-18(16)11-15/h3-11H,12-13H2,1-2H3,(H2,20,21)

>  <InChIKey>  (130) 
NTASSNARMLLQTN-UHFFFAOYSA-N

>  <SMILES>  (130) 
CN(C)Cc1cccc(c1)OCc2ccc3ccc(nc3c2)N

>  <MissingHeavyAtoms>  (130) 
0

>  <Model>  (130) 
1

>  <AltIds>  (130) 


>  <pKI>  (130) 
6.75

>  <ChemblID>  (130) 
CHEMBL3735617

>  <standardized_canonical_smiles>  (130) 
CN(C)Cc1cccc(OCc2ccc3ccc(N)nc3c2)c1

$$$$
5AD5_M94_B_800
     RDKit          3D

 23 25  0  0  0  0  0  0  0  0999 V2000
   18.7440    1.5990   52.8650 C   0  0  0  0  0  0  0  0  0  0  0  0
   18.2470    2.9780   52.7000 N   0  0  0  0  0  0  0  0  0  0  0  0
   18.6340    3.7870   53.8700 C   0  0  0  0  0  0  0  0  0  0  0  0
   18.5210    5.2870   53.5920 C   0  0  0  0  0  0  0  0  0  0  0  0
   17.0080    5.3190   55.5520 C   0  0  0  0  0  0  0  0  0  0  0  0
   18.0320    5.9440   54.8620 C   0  0  0  0  0  0  0  0  0  0  0  0
   18.5690    7.1350   55.3470 C   0  0  0  0  0  0  0  0  0  0  0  0
   18.0780    7.6870   56.5330 C   0  0  0  0  0  0  0  0  0  0  0  0
   17.0460    7.0550   57.2300 C   0  0  0  0  0  0  0  0  0  0  0  0
   16.5130    5.8650   56.7280 C   0  0  0  0  0  0  0  0  0  0  0  0
   15.5010    5.1890   57.3550 O   0  0  0  0  0  0  0  0  0  0  0  0
   15.0120    4.0250   56.6940 C   0  0  0  0  0  0  0  0  0  0  0  0
   12.6550    1.4460   58.1020 C   0  0  0  0  0  0  0  0  0  0  0  0
   13.6730    2.0400   57.3840 C   0  0  0  0  0  0  0  0  0  0  0  0
   13.9010    3.4040   57.4940 C   0  0  0  0  0  0  0  0  0  0  0  0
   13.1160    4.1730   58.3460 C   0  0  0  0  0  0  0  0  0  0  0  0
   12.1000    3.5680   59.0780 C   0  0  0  0  0  0  0  0  0  0  0  0
   11.8730    2.2090   58.9580 C   0  0  0  0  0  0  0  0  0  0  0  0
   10.8660    1.5870   59.6840 C   0  0  0  0  0  0  0  0  0  0  0  0
   10.6910    0.2100   59.5320 C   0  0  0  0  0  0  0  0  0  0  0  0
   11.4940   -0.5120   58.6420 C   0  0  0  0  0  0  0  0  0  0  0  0
   11.3280   -1.8480   58.4530 N   0  0  0  0  0  0  0  0  0  0  0  0
   12.4610    0.1200   57.9700 N   0  0  0  0  0  0  0  0  0  0  0  0
  2  1  1  0
  3  2  1  0
  4  3  1  0
  6  4  1  0
  6  5  2  0
 10  5  1  0
  7  6  1  0
  8  7  2  0
  9  8  1  0
 10  9  2  0
 11 10  1  0
 12 11  1  0
 15 12  1  0
 14 13  2  0
 18 13  1  0
 23 13  1  0
 15 14  1  0
 16 15  2  0
 17 16  1  0
 18 17  2  0
 19 18  1  0
 20 19  2  0
 21 20  1  0
 22 21  1  0
 23 21  2  0
A    1
C30
A    2
N29
A    3
C28
A    4
C27
A    5
C26
A    6
C25
A    7
C24
A    8
C23
A    9
C22
A   10
C21
A   11
O12
A   12
C11
A   13
C10
A   14
C09
A   15
C08
A   16
C07
A   17
C06
A   18
C05
A   19
C04
A   20
C03
A   21
C02
A   22
N02
A   23
N01
M  END
>  <Id>  (131) 
5AD5_M94_B_800

>  <ChainId>  (131) 
B

>  <AsymId>  (131) 
J

>  <SeqNum>  (131) 
800

>  <Name>  (131) 
7-[[3-[2-(methylamino)ethyl]phenoxy]methyl]quinolin-2-amine

>  <SystematicName>  (131) 
7-[[3-[2-(methylamino)ethyl]phenoxy]methyl]quinolin-2-amine

>  <Synonyms>  (131) 


>  <Type>  (131) 
non-polymer

>  <Formula>  (131) 
C19 H21 N3 O

>  <ObservedFormula>  (131) 
C19 N3 O

>  <MolecularWeight>  (131) 
307.39

>  <ModifiedDate>  (131) 
2015-10-23

>  <Parent>  (131) 


>  <OneLetterCode>  (131) 


>  <SubcomponentList>  (131) 


>  <AmbiguousFlag>  (131) 
N

>  <InsertionCode>  (131) 


>  <InstanceId>  (131) 
5AD5_M94_B_800

>  <ChemCompId>  (131) 
M94

>  <PdbId>  (131) 
5AD5

>  <ResidueNumber>  (131) 
800

>  <InChI>  (131) 
InChI=1S/C19H21N3O/c1-21-10-9-14-3-2-4-17(11-14)23-13-15-5-6-16-7-8-19(20)22-18(16)12-15/h2-8,11-12,21H,9-10,13H2,1H3,(H2,20,22)

>  <InChIKey>  (131) 
IHPWSPZSFKTYCX-UHFFFAOYSA-N

>  <SMILES>  (131) 
CNCCc1cccc(c1)OCc2ccc3ccc(nc3c2)N

>  <MissingHeavyAtoms>  (131) 
0

>  <Model>  (131) 
1

>  <AltIds>  (131) 


>  <pKI>  (131) 
6.48

>  <ChemblID>  (131) 
CHEMBL3736417

>  <standardized_canonical_smiles>  (131) 
CNCCc1cccc(OCc2ccc3ccc(N)nc3c2)c1

$$$$
5AD4_6M8_B_800
     RDKit          3D

 24 26  0  0  0  0  0  0  0  0999 V2000
   21.8770    8.6210   53.8700 C   0  0  0  0  0  0  0  0  0  0  0  0
   20.4420    8.7210   54.1570 N   0  0  0  0  0  0  0  0  0  0  0  0
   20.2370    9.6530   55.2760 C   0  0  0  0  0  0  0  0  0  0  0  0
   19.9800    7.3660   54.4970 C   0  0  0  0  0  0  0  0  0  0  0  0
   18.5650    7.3460   55.0700 C   0  0  0  0  0  0  0  0  0  0  0  0
   17.9850    5.9660   54.8310 C   0  0  0  0  0  0  0  0  0  0  0  0
   18.4830    5.1780   53.7940 C   0  0  0  0  0  0  0  0  0  0  0  0
   17.9630    3.9130   53.5610 C   0  0  0  0  0  0  0  0  0  0  0  0
   16.9330    3.4390   54.3610 C   0  0  0  0  0  0  0  0  0  0  0  0
   16.4250    4.2190   55.3950 C   0  0  0  0  0  0  0  0  0  0  0  0
   16.9520    5.4860   55.6340 C   0  0  0  0  0  0  0  0  0  0  0  0
   15.4160    3.7290   56.1800 O   0  0  0  0  0  0  0  0  0  0  0  0
   14.6650    4.6050   57.0080 C   0  0  0  0  0  0  0  0  0  0  0  0
   12.5230    1.7170   58.2660 C   0  0  0  0  0  0  0  0  0  0  0  0
   13.4730    2.4410   57.5300 C   0  0  0  0  0  0  0  0  0  0  0  0
   13.6470    3.8010   57.7790 C   0  0  0  0  0  0  0  0  0  0  0  0
   12.8790    4.4390   58.7470 C   0  0  0  0  0  0  0  0  0  0  0  0
   11.9360    3.7250   59.4740 C   0  0  0  0  0  0  0  0  0  0  0  0
   11.7510    2.3690   59.2320 C   0  0  0  0  0  0  0  0  0  0  0  0
   10.8050    1.6590   59.9720 C   0  0  0  0  0  0  0  0  0  0  0  0
   10.6560    0.3020   59.7330 C   0  0  0  0  0  0  0  0  0  0  0  0
   11.4220   -0.3220   58.7460 C   0  0  0  0  0  0  0  0  0  0  0  0
   11.2420   -1.6450   58.4910 N   0  0  0  0  0  0  0  0  0  0  0  0
   12.3450    0.3850   58.0460 N   0  0  0  0  0  0  0  0  0  0  0  0
  2  1  1  0
  3  2  1  0
  4  2  1  0
  5  4  1  0
  6  5  1  0
  7  6  2  0
 11  6  1  0
  8  7  1  0
  9  8  2  0
 10  9  1  0
 11 10  2  0
 12 10  1  0
 13 12  1  0
 16 13  1  0
 15 14  2  0
 19 14  1  0
 24 14  1  0
 16 15  1  0
 17 16  2  0
 18 17  1  0
 19 18  2  0
 20 19  1  0
 21 20  2  0
 22 21  1  0
 23 22  1  0
 24 22  2  0
A    1
C31
A    2
N29
A    3
C30
A    4
C28
A    5
C27
A    6
C21
A    7
C22
A    8
C23
A    9
C24
A   10
C25
A   11
C26
A   12
O12
A   13
C11
A   14
C10
A   15
C09
A   16
C08
A   17
C07
A   18
C06
A   19
C05
A   20
C04
A   21
C03
A   22
C02
A   23
N02
A   24
N01
M  END
>  <Id>  (132) 
5AD4_6M8_B_800

>  <ChainId>  (132) 
B

>  <AsymId>  (132) 
I

>  <SeqNum>  (132) 
800

>  <Name>  (132) 
7-[[3-[2-(dimethylamino)ethyl]phenoxy]methyl]quinolin-2-amine

>  <SystematicName>  (132) 
7-[[3-[2-(dimethylamino)ethyl]phenoxy]methyl]quinolin-2-amine

>  <Synonyms>  (132) 


>  <Type>  (132) 
non-polymer

>  <Formula>  (132) 
C20 H23 N3 O

>  <ObservedFormula>  (132) 
C20 N3 O

>  <MolecularWeight>  (132) 
321.416

>  <ModifiedDate>  (132) 
2015-10-23

>  <Parent>  (132) 


>  <OneLetterCode>  (132) 


>  <SubcomponentList>  (132) 


>  <AmbiguousFlag>  (132) 
N

>  <InsertionCode>  (132) 


>  <InstanceId>  (132) 
5AD4_6M8_B_800

>  <ChemCompId>  (132) 
6M8

>  <PdbId>  (132) 
5AD4

>  <ResidueNumber>  (132) 
800

>  <InChI>  (132) 
InChI=1S/C20H23N3O/c1-23(2)11-10-15-4-3-5-18(12-15)24-14-16-6-7-17-8-9-20(21)22-19(17)13-16/h3-9,12-13H,10-11,14H2,1-2H3,(H2,21,22)

>  <InChIKey>  (132) 
TTZAIJYOUAIUID-UHFFFAOYSA-N

>  <SMILES>  (132) 
CN(C)CCc1cccc(c1)OCc2ccc3ccc(nc3c2)N

>  <MissingHeavyAtoms>  (132) 
0

>  <Model>  (132) 
1

>  <AltIds>  (132) 


>  <pKI>  (132) 
6.33

>  <ChemblID>  (132) 
CHEMBL3736428

>  <standardized_canonical_smiles>  (132) 
CN(C)CCc1cccc(OCc2ccc3ccc(N)nc3c2)c1

$$$$
5FVS_W66_B_800
     RDKit          3D

 21 22  0  0  0  0  0  0  0  0999 V2000
   10.4020    1.6990   61.3370 C   0  0  0  0  0  0  0  0  0  0  0  0
   12.9350    0.5530   58.7550 C   0  0  0  0  0  0  0  0  0  0  0  0
   12.3120    1.2730   59.7710 C   0  0  0  0  0  0  0  0  0  0  0  0
   11.0660    0.8870   60.2490 C   0  0  0  0  0  0  0  0  0  0  0  0
   10.4540   -0.2500   59.7050 C   0  0  0  0  0  0  0  0  0  0  0  0
   11.1140   -0.9610   58.6890 C   0  0  0  0  0  0  0  0  0  0  0  0
   10.5680   -2.0730   58.1180 N   0  0  0  0  0  0  0  0  0  0  0  0
   12.3220   -0.5450   58.2570 N   0  0  0  0  0  0  0  0  0  0  0  0
   14.3230    0.9500   58.2700 C   0  0  0  0  0  0  0  0  0  0  0  0
   15.2120    0.3310   59.3480 C   0  0  0  0  0  0  0  0  0  0  0  0
   19.4680    0.4530   59.1830 C   0  0  0  0  0  0  0  0  0  0  0  0
   18.7660    1.1600   58.1970 C   0  0  0  0  0  0  0  0  0  0  0  0
   17.3670    1.1490   58.2080 C   0  0  0  0  0  0  0  0  0  0  0  0
   16.7230    0.4260   59.2150 C   0  0  0  0  0  0  0  0  0  0  0  0
   17.4970   -0.2520   60.1680 C   0  0  0  0  0  0  0  0  0  0  0  0
   18.8360   -0.2290   60.1480 N   0  0  0  0  0  0  0  0  0  0  0  0
   19.5470    1.9160   57.1350 C   0  0  0  0  0  0  0  0  0  0  0  0
   18.7160    2.9680   56.4050 C   0  0  0  0  0  0  0  0  0  0  0  0
   18.8600    4.7380   54.6520 N   0  0  0  0  0  0  0  0  0  0  0  0
   19.6270    3.9010   55.5960 C   0  0  0  0  0  0  0  0  0  0  0  0
   17.9330    5.6270   55.3780 C   0  0  0  0  0  0  0  0  0  0  0  0
  4  1  1  0
  3  2  2  0
  8  2  1  0
  9  2  1  0
  4  3  1  0
  5  4  2  0
  6  5  1  0
  7  6  1  0
  8  6  2  0
 10  9  1  0
 14 10  1  0
 12 11  2  0
 16 11  1  0
 13 12  1  0
 17 12  1  0
 14 13  2  0
 15 14  1  0
 16 15  2  0
 18 17  1  0
 20 18  1  0
 20 19  1  0
 21 19  1  0
A    1
C07
A    2
C06
A    3
C05
A    4
C04
A    5
C03
A    6
C02
A    7
N02
A    8
N01
A    9
C08
A   10
C09
A   11
C16
A   12
C15
A   13
C14
A   14
C13
A   15
C12
A   16
N11
A   17
C17
A   18
C18
A   19
N20
A   20
C19
A   21
C21
M  END
>  <Id>  (133) 
5FVS_W66_B_800

>  <ChainId>  (133) 
B

>  <AsymId>  (133) 
J

>  <SeqNum>  (133) 
800

>  <Name>  (133) 
4-METHYL-6-(2-(5-(3-(METHYLAMINO)PROPYL)PYRIDIN-3-YL)ETHYL)PYRIDIN-2-AMINE

>  <SystematicName>  (133) 
4-methyl-6-[2-[5-[3-(methylamino)propyl]pyridin-3-yl]ethyl]pyridin-2-amine

>  <Synonyms>  (133) 


>  <Type>  (133) 
non-polymer

>  <Formula>  (133) 
C17 H24 N4

>  <ObservedFormula>  (133) 
C17 N4

>  <MolecularWeight>  (133) 
284.399

>  <ModifiedDate>  (133) 
2016-04-15

>  <Parent>  (133) 


>  <OneLetterCode>  (133) 


>  <SubcomponentList>  (133) 


>  <AmbiguousFlag>  (133) 
N

>  <InsertionCode>  (133) 


>  <InstanceId>  (133) 
5FVS_W66_B_800

>  <ChemCompId>  (133) 
W66

>  <PdbId>  (133) 
5FVS

>  <ResidueNumber>  (133) 
800

>  <InChI>  (133) 
InChI=1S/C17H24N4/c1-13-8-16(21-17(18)9-13)6-5-15-10-14(11-20-12-15)4-3-7-19-2/h8-12,19H,3-7H2,1-2H3,(H2,18,21)

>  <InChIKey>  (133) 
YUXWMCKGSHXUGW-UHFFFAOYSA-N

>  <SMILES>  (133) 
Cc1cc(nc(c1)N)CCc2cc(cnc2)CCCNC

>  <MissingHeavyAtoms>  (133) 
0

>  <Model>  (133) 
1

>  <AltIds>  (133) 


>  <pKI>  (133) 
7.8

>  <ChemblID>  (133) 
CHEMBL3818373

>  <standardized_canonical_smiles>  (133) 
CNCCCc1cncc(CCc2cc(C)cc(N)n2)c1

$$$$
5G0P_W67_B_800
     RDKit          3D

 22 23  0  0  0  0  0  0  0  0999 V2000
   12.3050   -0.2140   58.3010 N   0  0  0  0  0  0  0  0  0  0  0  0
   11.2340   -0.7210   58.9460 C   0  0  0  0  0  0  0  0  0  0  0  0
   10.7150   -1.9020   58.5110 N   0  0  0  0  0  0  0  0  0  0  0  0
   10.6860   -0.0360   60.0410 C   0  0  0  0  0  0  0  0  0  0  0  0
   11.2540    1.1710   60.4490 C   0  0  0  0  0  0  0  0  0  0  0  0
   12.3580    1.6700   59.7530 C   0  0  0  0  0  0  0  0  0  0  0  0
   12.8720    0.9580   58.6640 C   0  0  0  0  0  0  0  0  0  0  0  0
   10.6730    1.9240   61.6230 C   0  0  0  0  0  0  0  0  0  0  0  0
   14.0830    1.4140   57.8690 C   0  0  0  0  0  0  0  0  0  0  0  0
   14.2720    2.9220   57.7890 C   0  0  0  0  0  0  0  0  0  0  0  0
   17.9870    2.5650   57.1620 N   0  0  0  0  0  0  0  0  0  0  0  0
   16.7430    2.3360   57.6200 C   0  0  0  0  0  0  0  0  0  0  0  0
   15.6790    3.1780   57.2780 C   0  0  0  0  0  0  0  0  0  0  0  0
   15.9270    4.2690   56.4510 C   0  0  0  0  0  0  0  0  0  0  0  0
   17.2230    4.4920   55.9850 C   0  0  0  0  0  0  0  0  0  0  0  0
   18.2440    3.6140   56.3600 C   0  0  0  0  0  0  0  0  0  0  0  0
   17.4970    5.6820   55.0840 C   0  0  0  0  0  0  0  0  0  0  0  0
   18.4200    6.6720   55.7960 C   0  0  0  0  0  0  0  0  0  0  0  0
   18.3420    8.0960   55.2380 C   0  0  0  0  0  0  0  0  0  0  0  0
   19.8150    9.7230   54.2680 C   0  0  0  0  0  0  0  0  0  0  0  0
   19.2840    8.3580   54.1250 N   0  0  0  0  0  0  0  0  0  0  0  0
   20.4280    7.4260   54.0980 C   0  0  0  0  0  0  0  0  0  0  0  0
  2  1  2  0
  7  1  1  0
  3  2  1  0
  4  2  1  0
  5  4  2  0
  6  5  1  0
  8  5  1  0
  7  6  2  0
  9  7  1  0
 10  9  1  0
 13 10  1  0
 12 11  2  0
 16 11  1  0
 13 12  1  0
 14 13  2  0
 15 14  1  0
 16 15  2  0
 17 15  1  0
 18 17  1  0
 19 18  1  0
 21 19  1  0
 21 20  1  0
 22 21  1  0
A    1
N01
A    2
C02
A    3
N02
A    4
C03
A    5
C04
A    6
C05
A    7
C06
A    8
C07
A    9
C08
A   10
C09
A   11
N11
A   12
C12
A   13
C13
A   14
C14
A   15
C15
A   16
C16
A   17
C17
A   18
C18
A   19
C19
A   20
C22
A   21
N20
A   22
C21
M  END
>  <Id>  (134) 
5G0P_W67_B_800

>  <ChainId>  (134) 
B

>  <AsymId>  (134) 
J

>  <SeqNum>  (134) 
800

>  <Name>  (134) 
6-(2-(5-(3-(DIMETHYLAMINO)PROPYL)PYRIDIN-3-YL)ETHYL)-4-METHYLPYRIDIN-2-AMINE

>  <SystematicName>  (134) 
6-[2-[5-[3-(dimethylamino)propyl]pyridin-3-yl]ethyl]-4-methyl-pyridin-2-amine

>  <Synonyms>  (134) 


>  <Type>  (134) 
non-polymer

>  <Formula>  (134) 
C18 H26 N4

>  <ObservedFormula>  (134) 
C18 N4

>  <MolecularWeight>  (134) 
298.426

>  <ModifiedDate>  (134) 
2016-04-15

>  <Parent>  (134) 


>  <OneLetterCode>  (134) 


>  <SubcomponentList>  (134) 


>  <AmbiguousFlag>  (134) 
N

>  <InsertionCode>  (134) 


>  <InstanceId>  (134) 
5G0P_W67_B_800

>  <ChemCompId>  (134) 
W67

>  <PdbId>  (134) 
5G0P

>  <ResidueNumber>  (134) 
800

>  <InChI>  (134) 
InChI=1S/C18H26N4/c1-14-9-17(21-18(19)10-14)7-6-16-11-15(12-20-13-16)5-4-8-22(2)3/h9-13H,4-8H2,1-3H3,(H2,19,21)

>  <InChIKey>  (134) 
TUAXAWZDVAYXFN-UHFFFAOYSA-N

>  <SMILES>  (134) 
Cc1cc(nc(c1)N)CCc2cc(cnc2)CCCN(C)C

>  <MissingHeavyAtoms>  (134) 
0

>  <Model>  (134) 
1

>  <AltIds>  (134) 


>  <pKI>  (134) 
7.6

>  <ChemblID>  (134) 
CHEMBL3818566

>  <standardized_canonical_smiles>  (134) 
Cc1cc(N)nc(CCc2cncc(CCCN(C)C)c2)c1

$$$$
5FVT_W67_B_800
     RDKit          3D

 22 23  0  0  0  0  0  0  0  0999 V2000
   12.4010   -0.5070   58.2440 N   0  0  0  0  0  0  0  0  0  0  0  0
   11.1660   -0.8870   58.6420 C   0  0  0  0  0  0  0  0  0  0  0  0
   10.5990   -1.9940   58.0700 N   0  0  0  0  0  0  0  0  0  0  0  0
   10.4980   -0.1520   59.6310 C   0  0  0  0  0  0  0  0  0  0  0  0
   11.1110    0.9680   60.1930 C   0  0  0  0  0  0  0  0  0  0  0  0
   12.3810    1.3230   59.7570 C   0  0  0  0  0  0  0  0  0  0  0  0
   13.0140    0.5800   58.7660 C   0  0  0  0  0  0  0  0  0  0  0  0
   10.4320    1.8030   61.2630 C   0  0  0  0  0  0  0  0  0  0  0  0
   14.4210    0.9490   58.3340 C   0  0  0  0  0  0  0  0  0  0  0  0
   15.2380    0.2040   59.3900 C   0  0  0  0  0  0  0  0  0  0  0  0
   18.8180   -0.5790   60.1900 N   0  0  0  0  0  0  0  0  0  0  0  0
   17.4810   -0.5240   60.2150 C   0  0  0  0  0  0  0  0  0  0  0  0
   16.7490    0.2070   59.2710 C   0  0  0  0  0  0  0  0  0  0  0  0
   17.4240    0.8990   58.2690 C   0  0  0  0  0  0  0  0  0  0  0  0
   18.8170    0.8290   58.2600 C   0  0  0  0  0  0  0  0  0  0  0  0
   19.4830    0.0810   59.2340 C   0  0  0  0  0  0  0  0  0  0  0  0
   19.6410    1.5450   57.2100 C   0  0  0  0  0  0  0  0  0  0  0  0
   18.8420    2.4750   56.3070 C   0  0  0  0  0  0  0  0  0  0  0  0
   19.8450    3.1560   55.3690 C   0  0  0  0  0  0  0  0  0  0  0  0
   18.6660    5.2750   55.2900 C   0  0  0  0  0  0  0  0  0  0  0  0
   19.2550    4.1870   54.4920 N   0  0  0  0  0  0  0  0  0  0  0  0
   20.3170    4.7290   53.6250 C   0  0  0  0  0  0  0  0  0  0  0  0
  2  1  2  0
  7  1  1  0
  3  2  1  0
  4  2  1  0
  5  4  2  0
  6  5  1  0
  8  5  1  0
  7  6  2  0
  9  7  1  0
 10  9  1  0
 13 10  1  0
 12 11  2  0
 16 11  1  0
 13 12  1  0
 14 13  2  0
 15 14  1  0
 16 15  2  0
 17 15  1  0
 18 17  1  0
 19 18  1  0
 21 19  1  0
 21 20  1  0
 22 21  1  0
A    1
N01
A    2
C02
A    3
N02
A    4
C03
A    5
C04
A    6
C05
A    7
C06
A    8
C07
A    9
C08
A   10
C09
A   11
N11
A   12
C12
A   13
C13
A   14
C14
A   15
C15
A   16
C16
A   17
C17
A   18
C18
A   19
C19
A   20
C22
A   21
N20
A   22
C21
M  END
>  <Id>  (135) 
5FVT_W67_B_800

>  <ChainId>  (135) 
B

>  <AsymId>  (135) 
J

>  <SeqNum>  (135) 
800

>  <Name>  (135) 
6-(2-(5-(3-(DIMETHYLAMINO)PROPYL)PYRIDIN-3-YL)ETHYL)-4-METHYLPYRIDIN-2-AMINE

>  <SystematicName>  (135) 
6-[2-[5-[3-(dimethylamino)propyl]pyridin-3-yl]ethyl]-4-methyl-pyridin-2-amine

>  <Synonyms>  (135) 


>  <Type>  (135) 
non-polymer

>  <Formula>  (135) 
C18 H26 N4

>  <ObservedFormula>  (135) 
C18 N4

>  <MolecularWeight>  (135) 
298.426

>  <ModifiedDate>  (135) 
2016-04-15

>  <Parent>  (135) 


>  <OneLetterCode>  (135) 


>  <SubcomponentList>  (135) 


>  <AmbiguousFlag>  (135) 
N

>  <InsertionCode>  (135) 


>  <InstanceId>  (135) 
5FVT_W67_B_800

>  <ChemCompId>  (135) 
W67

>  <PdbId>  (135) 
5FVT

>  <ResidueNumber>  (135) 
800

>  <InChI>  (135) 
InChI=1S/C18H26N4/c1-14-9-17(21-18(19)10-14)7-6-16-11-15(12-20-13-16)5-4-8-22(2)3/h9-13H,4-8H2,1-3H3,(H2,19,21)

>  <InChIKey>  (135) 
TUAXAWZDVAYXFN-UHFFFAOYSA-N

>  <SMILES>  (135) 
Cc1cc(nc(c1)N)CCc2cc(cnc2)CCCN(C)C

>  <MissingHeavyAtoms>  (135) 
0

>  <Model>  (135) 
1

>  <AltIds>  (135) 


>  <pKI>  (135) 
7.6

>  <ChemblID>  (135) 
CHEMBL3818566

>  <standardized_canonical_smiles>  (135) 
Cc1cc(N)nc(CCc2cncc(CCCN(C)C)c2)c1

$$$$
5FVR_H65_B_800
     RDKit          3D

 23 25  0  0  0  0  0  0  0  0999 V2000
   12.2890   -0.4110   58.1810 N   0  0  0  0  0  0  0  0  0  0  0  0
   11.0930   -0.8620   58.6090 C   0  0  0  0  0  0  0  0  0  0  0  0
   10.5710   -1.9720   58.0210 N   0  0  0  0  0  0  0  0  0  0  0  0
   10.4170   -0.1950   59.6430 C   0  0  0  0  0  0  0  0  0  0  0  0
   10.9910    0.9350   60.2200 C   0  0  0  0  0  0  0  0  0  0  0  0
   12.2220    1.3660   59.7470 C   0  0  0  0  0  0  0  0  0  0  0  0
   12.8610    0.6940   58.7110 C   0  0  0  0  0  0  0  0  0  0  0  0
   10.3090    1.7040   61.3350 C   0  0  0  0  0  0  0  0  0  0  0  0
   14.2390    1.1320   58.2510 C   0  0  0  0  0  0  0  0  0  0  0  0
   15.0740    0.1540   59.0900 C   0  0  0  0  0  0  0  0  0  0  0  0
   18.6510   -0.2780   60.2140 N   0  0  0  0  0  0  0  0  0  0  0  0
   17.3100   -0.3460   60.1350 C   0  0  0  0  0  0  0  0  0  0  0  0
   16.5870    0.2770   59.1070 C   0  0  0  0  0  0  0  0  0  0  0  0
   17.2830    0.9790   58.1340 C   0  0  0  0  0  0  0  0  0  0  0  0
   18.6710    1.0360   58.2290 C   0  0  0  0  0  0  0  0  0  0  0  0
   19.3380    0.3970   59.2810 C   0  0  0  0  0  0  0  0  0  0  0  0
   18.5640    2.8940   56.6180 C   0  0  0  0  0  0  0  0  0  0  0  0
   19.4350    1.7860   57.2030 C   0  0  0  0  0  0  0  0  0  0  0  0
   19.8590    0.8610   56.0690 C   0  0  0  0  0  0  0  0  0  0  0  0
   19.3260    3.6700   55.5460 C   0  0  0  0  0  0  0  0  0  0  0  0
   20.6240    1.6760   55.0250 C   0  0  0  0  0  0  0  0  0  0  0  0
   19.7870    2.7640   54.4760 N   0  0  0  0  0  0  0  0  0  0  0  0
   20.5670    3.5330   53.4900 C   0  0  0  0  0  0  0  0  0  0  0  0
  2  1  2  0
  7  1  1  0
  3  2  1  0
  4  2  1  0
  5  4  2  0
  6  5  1  0
  8  5  1  0
  7  6  2  0
  9  7  1  0
 10  9  1  0
 13 10  1  0
 12 11  2  0
 16 11  1  0
 13 12  1  0
 14 13  2  0
 15 14  1  0
 16 15  2  0
 18 15  1  0
 18 17  1  0
 20 17  1  0
 19 18  1  0
 21 19  1  0
 22 20  1  0
 22 21  1  0
 23 22  1  0
A    1
N01
A    2
C02
A    3
N02
A    4
C03
A    5
C04
A    6
C05
A    7
C06
A    8
C07
A    9
C08
A   10
C09
A   11
N11
A   12
C12
A   13
C13
A   14
C14
A   15
C15
A   16
C16
A   17
C23
A   18
C24
A   19
C25
A   20
C22
A   21
C26
A   22
N21
A   23
C27
M  END
>  <Id>  (136) 
5FVR_H65_B_800

>  <ChainId>  (136) 
B

>  <AsymId>  (136) 
J

>  <SeqNum>  (136) 
800

>  <Name>  (136) 
4-methyl-6-(2-(5-(1-methylpiperidin-4-yl)pyridin-3-yl)ethyl)pyridin-2-amine

>  <SystematicName>  (136) 
4-methyl-6-[2-[5-(1-methylpiperidin-4-yl)pyridin-3-yl]ethyl]pyridin-2-amine

>  <Synonyms>  (136) 


>  <Type>  (136) 
non-polymer

>  <Formula>  (136) 
C19 H26 N4

>  <ObservedFormula>  (136) 
C19 N4

>  <MolecularWeight>  (136) 
310.437

>  <ModifiedDate>  (136) 
2016-04-15

>  <Parent>  (136) 


>  <OneLetterCode>  (136) 


>  <SubcomponentList>  (136) 


>  <AmbiguousFlag>  (136) 
N

>  <InsertionCode>  (136) 


>  <InstanceId>  (136) 
5FVR_H65_B_800

>  <ChemCompId>  (136) 
H65

>  <PdbId>  (136) 
5FVR

>  <ResidueNumber>  (136) 
800

>  <InChI>  (136) 
InChI=1S/C19H26N4/c1-14-9-18(22-19(20)10-14)4-3-15-11-17(13-21-12-15)16-5-7-23(2)8-6-16/h9-13,16H,3-8H2,1-2H3,(H2,20,22)

>  <InChIKey>  (136) 
UTFTUBTWHNJKBO-UHFFFAOYSA-N

>  <SMILES>  (136) 
Cc1cc(nc(c1)N)CCc2cc(cnc2)C3CCN(CC3)C

>  <MissingHeavyAtoms>  (136) 
0

>  <Model>  (136) 
1

>  <AltIds>  (136) 


>  <pKI>  (136) 
7.14

>  <ChemblID>  (136) 
CHEMBL3819551

>  <standardized_canonical_smiles>  (136) 
Cc1cc(N)nc(CCc2cncc(C3CCN(C)CC3)c2)c1

$$$$
5FVQ_W64_B_800
     RDKit          3D

 23 25  0  0  0  0  0  0  0  0999 V2000
   12.2460   -0.6100   58.1130 N   0  0  0  0  0  0  0  0  0  0  0  0
   11.0190   -1.0260   58.5010 C   0  0  0  0  0  0  0  0  0  0  0  0
   10.4680   -2.1050   57.8790 N   0  0  0  0  0  0  0  0  0  0  0  0
   10.3410   -0.3590   59.5360 C   0  0  0  0  0  0  0  0  0  0  0  0
   10.9460    0.7410   60.1450 C   0  0  0  0  0  0  0  0  0  0  0  0
   12.2060    1.1430   59.7160 C   0  0  0  0  0  0  0  0  0  0  0  0
   12.8450    0.4640   58.6870 C   0  0  0  0  0  0  0  0  0  0  0  0
   10.2630    1.5080   61.2560 C   0  0  0  0  0  0  0  0  0  0  0  0
   14.2420    0.8850   58.2770 C   0  0  0  0  0  0  0  0  0  0  0  0
   15.0910    0.1740   59.3410 C   0  0  0  0  0  0  0  0  0  0  0  0
   18.7340   -0.4150   60.0500 N   0  0  0  0  0  0  0  0  0  0  0  0
   17.3940   -0.4510   60.1110 C   0  0  0  0  0  0  0  0  0  0  0  0
   16.6000    0.2570   59.2050 C   0  0  0  0  0  0  0  0  0  0  0  0
   17.2220    1.0060   58.2100 C   0  0  0  0  0  0  0  0  0  0  0  0
   18.6190    1.0340   58.1620 C   0  0  0  0  0  0  0  0  0  0  0  0
   19.3550    0.3010   59.1000 C   0  0  0  0  0  0  0  0  0  0  0  0
   19.7850    0.8660   56.1360 C   0  0  0  0  0  0  0  0  0  0  0  0
   19.2910    1.7740   57.1660 N   0  0  0  0  0  0  0  0  0  0  0  0
   18.4290    2.7980   56.5810 C   0  0  0  0  0  0  0  0  0  0  0  0
   20.6950    1.7200   55.2590 C   0  0  0  0  0  0  0  0  0  0  0  0
   19.3310    3.6480   55.6910 C   0  0  0  0  0  0  0  0  0  0  0  0
   19.9150    2.8020   54.6370 N   0  0  0  0  0  0  0  0  0  0  0  0
   20.8050    3.5980   53.7760 C   0  0  0  0  0  0  0  0  0  0  0  0
  2  1  2  0
  7  1  1  0
  3  2  1  0
  4  2  1  0
  5  4  2  0
  6  5  1  0
  8  5  1  0
  7  6  2  0
  9  7  1  0
 10  9  1  0
 13 10  1  0
 12 11  2  0
 16 11  1  0
 13 12  1  0
 14 13  2  0
 15 14  1  0
 16 15  2  0
 18 15  1  0
 18 17  1  0
 20 17  1  0
 19 18  1  0
 21 19  1  0
 22 20  1  0
 22 21  1  0
 23 22  1  0
A    1
N01
A    2
C02
A    3
N02
A    4
C03
A    5
C04
A    6
C05
A    7
C06
A    8
C07
A    9
C08
A   10
C09
A   11
N11
A   12
C12
A   13
C13
A   14
C14
A   15
C15
A   16
C16
A   17
C22
A   18
N21
A   19
C26
A   20
C23
A   21
C25
A   22
N24
A   23
C27
M  END
>  <Id>  (137) 
5FVQ_W64_B_800

>  <ChainId>  (137) 
B

>  <AsymId>  (137) 
J

>  <SeqNum>  (137) 
800

>  <Name>  (137) 
4-methyl-6-(2-(5-(4-methylpiperazin-1-yl)pyridin-3-yl)ethyl)pyridin-2-amine

>  <SystematicName>  (137) 
4-methyl-6-[2-[5-(4-methylpiperazin-1-yl)pyridin-3-yl]ethyl]pyridin-2-amine

>  <Synonyms>  (137) 


>  <Type>  (137) 
non-polymer

>  <Formula>  (137) 
C18 H25 N5

>  <ObservedFormula>  (137) 
C18 N5

>  <MolecularWeight>  (137) 
311.425

>  <ModifiedDate>  (137) 
2016-04-15

>  <Parent>  (137) 


>  <OneLetterCode>  (137) 


>  <SubcomponentList>  (137) 


>  <AmbiguousFlag>  (137) 
N

>  <InsertionCode>  (137) 


>  <InstanceId>  (137) 
5FVQ_W64_B_800

>  <ChemCompId>  (137) 
W64

>  <PdbId>  (137) 
5FVQ

>  <ResidueNumber>  (137) 
800

>  <InChI>  (137) 
InChI=1S/C18H25N5/c1-14-9-16(21-18(19)10-14)4-3-15-11-17(13-20-12-15)23-7-5-22(2)6-8-23/h9-13H,3-8H2,1-2H3,(H2,19,21)

>  <InChIKey>  (137) 
QJETXLUKROHQMG-UHFFFAOYSA-N

>  <SMILES>  (137) 
Cc1cc(nc(c1)N)CCc2cc(cnc2)N3CCN(CC3)C

>  <MissingHeavyAtoms>  (137) 
0

>  <Model>  (137) 
1

>  <AltIds>  (137) 


>  <pKI>  (137) 
7.37

>  <ChemblID>  (137) 
CHEMBL3818545

>  <standardized_canonical_smiles>  (137) 
Cc1cc(N)nc(CCc2cncc(N3CCN(C)CC3)c2)c1

$$$$
5G0O_W64_B_800
     RDKit          3D

 23 25  0  0  0  0  0  0  0  0999 V2000
   12.1820   -0.0460   57.9950 N   0  0  0  0  0  0  0  0  0  0  0  0
   11.2720   -0.7350   58.7130 C   0  0  0  0  0  0  0  0  0  0  0  0
   10.9080   -1.9820   58.3100 N   0  0  0  0  0  0  0  0  0  0  0  0
   10.7220   -0.1670   59.8710 C   0  0  0  0  0  0  0  0  0  0  0  0
   11.1200    1.1100   60.2540 C   0  0  0  0  0  0  0  0  0  0  0  0
   12.0450    1.7910   59.4710 C   0  0  0  0  0  0  0  0  0  0  0  0
   12.5750    1.2030   58.3320 C   0  0  0  0  0  0  0  0  0  0  0  0
   10.5570    1.7770   61.4880 C   0  0  0  0  0  0  0  0  0  0  0  0
   13.6000    1.9640   57.5100 C   0  0  0  0  0  0  0  0  0  0  0  0
   14.9850    1.3820   57.7880 C   0  0  0  0  0  0  0  0  0  0  0  0
   18.4070    2.4700   56.7030 N   0  0  0  0  0  0  0  0  0  0  0  0
   17.3590    1.7290   57.0770 C   0  0  0  0  0  0  0  0  0  0  0  0
   16.1250    2.2990   57.3760 C   0  0  0  0  0  0  0  0  0  0  0  0
   15.9900    3.6840   57.2890 C   0  0  0  0  0  0  0  0  0  0  0  0
   17.0960    4.4430   56.9000 C   0  0  0  0  0  0  0  0  0  0  0  0
   18.3010    3.7960   56.6180 C   0  0  0  0  0  0  0  0  0  0  0  0
   16.5420    6.3180   58.1250 C   0  0  0  0  0  0  0  0  0  0  0  0
   17.0190    5.8510   56.8160 N   0  0  0  0  0  0  0  0  0  0  0  0
   18.3600    6.3410   56.4610 C   0  0  0  0  0  0  0  0  0  0  0  0
   16.7240    7.8280   58.2390 C   0  0  0  0  0  0  0  0  0  0  0  0
   18.4830    7.8420   56.7030 C   0  0  0  0  0  0  0  0  0  0  0  0
   18.1500    8.1330   58.0990 N   0  0  0  0  0  0  0  0  0  0  0  0
   18.4180    9.5470   58.4040 C   0  0  0  0  0  0  0  0  0  0  0  0
  2  1  2  0
  7  1  1  0
  3  2  1  0
  4  2  1  0
  5  4  2  0
  6  5  1  0
  8  5  1  0
  7  6  2  0
  9  7  1  0
 10  9  1  0
 13 10  1  0
 12 11  2  0
 16 11  1  0
 13 12  1  0
 14 13  2  0
 15 14  1  0
 16 15  2  0
 18 15  1  0
 18 17  1  0
 20 17  1  0
 19 18  1  0
 21 19  1  0
 22 20  1  0
 22 21  1  0
 23 22  1  0
A    1
N01
A    2
C02
A    3
N02
A    4
C03
A    5
C04
A    6
C05
A    7
C06
A    8
C07
A    9
C08
A   10
C09
A   11
N11
A   12
C12
A   13
C13
A   14
C14
A   15
C15
A   16
C16
A   17
C22
A   18
N21
A   19
C26
A   20
C23
A   21
C25
A   22
N24
A   23
C27
M  END
>  <Id>  (138) 
5G0O_W64_B_800

>  <ChainId>  (138) 
B

>  <AsymId>  (138) 
J

>  <SeqNum>  (138) 
800

>  <Name>  (138) 
4-methyl-6-(2-(5-(4-methylpiperazin-1-yl)pyridin-3-yl)ethyl)pyridin-2-amine

>  <SystematicName>  (138) 
4-methyl-6-[2-[5-(4-methylpiperazin-1-yl)pyridin-3-yl]ethyl]pyridin-2-amine

>  <Synonyms>  (138) 


>  <Type>  (138) 
non-polymer

>  <Formula>  (138) 
C18 H25 N5

>  <ObservedFormula>  (138) 
C18 N5

>  <MolecularWeight>  (138) 
311.425

>  <ModifiedDate>  (138) 
2016-04-15

>  <Parent>  (138) 


>  <OneLetterCode>  (138) 


>  <SubcomponentList>  (138) 


>  <AmbiguousFlag>  (138) 
N

>  <InsertionCode>  (138) 


>  <InstanceId>  (138) 
5G0O_W64_B_800

>  <ChemCompId>  (138) 
W64

>  <PdbId>  (138) 
5G0O

>  <ResidueNumber>  (138) 
800

>  <InChI>  (138) 
InChI=1S/C18H25N5/c1-14-9-16(21-18(19)10-14)4-3-15-11-17(13-20-12-15)23-7-5-22(2)6-8-23/h9-13H,3-8H2,1-2H3,(H2,19,21)

>  <InChIKey>  (138) 
QJETXLUKROHQMG-UHFFFAOYSA-N

>  <SMILES>  (138) 
Cc1cc(nc(c1)N)CCc2cc(cnc2)N3CCN(CC3)C

>  <MissingHeavyAtoms>  (138) 
0

>  <Model>  (138) 
1

>  <AltIds>  (138) 


>  <pKI>  (138) 
7.37

>  <ChemblID>  (138) 
CHEMBL3818545

>  <standardized_canonical_smiles>  (138) 
Cc1cc(N)nc(CCc2cncc(N3CCN(C)CC3)c2)c1

$$$$
5FVO_D8H_A_800
     RDKit          3D

 22 23  0  0  0  0  0  0  0  0999 V2000
   46.8630   -1.0510   23.7480 N   0  0  0  0  0  0  0  0  0  0  0  0
   46.2160    0.0520   23.2760 C   0  0  0  0  0  0  0  0  0  0  0  0
   46.6570    0.6760   22.0990 C   0  0  0  0  0  0  0  0  0  0  0  0
   45.9840    1.7900   21.6170 C   0  0  0  0  0  0  0  0  0  0  0  0
   46.4330    2.4920   20.3550 C   0  0  0  0  0  0  0  0  0  0  0  0
   44.8930    2.2710   22.3270 C   0  0  0  0  0  0  0  0  0  0  0  0
   45.1430    0.5400   23.9350 N   0  0  0  0  0  0  0  0  0  0  0  0
   44.4890    1.6350   23.4870 C   0  0  0  0  0  0  0  0  0  0  0  0
   43.2920    2.1770   24.2250 C   0  0  0  0  0  0  0  0  0  0  0  0
   42.0650    1.4290   23.7320 C   0  0  0  0  0  0  0  0  0  0  0  0
   40.8420    1.8760   24.5010 C   0  0  0  0  0  0  0  0  0  0  0  0
   39.8520    0.9380   24.7920 C   0  0  0  0  0  0  0  0  0  0  0  0
   40.6970    3.1950   24.9330 C   0  0  0  0  0  0  0  0  0  0  0  0
   39.5450    3.5230   25.6450 C   0  0  0  0  0  0  0  0  0  0  0  0
   38.5890    2.5410   25.8910 C   0  0  0  0  0  0  0  0  0  0  0  0
   38.7520    1.2820   25.4770 N   0  0  0  0  0  0  0  0  0  0  0  0
   39.3200    4.7800   26.0940 N   0  0  0  0  0  0  0  0  0  0  0  0
   38.2340    5.0100   27.0340 C   0  0  0  0  0  0  0  0  0  0  0  0
   37.0670    5.8340   26.4950 C   0  0  0  0  0  0  0  0  0  0  0  0
   36.7980    7.0170   27.4260 C   0  0  0  0  0  0  0  0  0  0  0  0
   35.4020    7.1920   27.7030 O   0  0  0  0  0  0  0  0  0  0  0  0
   34.7380    5.9880   28.0970 C   0  0  0  0  0  0  0  0  0  0  0  0
  2  1  1  0
  3  2  2  0
  7  2  1  0
  4  3  1  0
  5  4  1  0
  6  4  2  0
  8  6  1  0
  8  7  2  0
  9  8  1  0
 10  9  1  0
 11 10  1  0
 12 11  2  0
 13 11  1  0
 16 12  1  0
 14 13  2  0
 15 14  1  0
 17 14  1  0
 16 15  2  0
 18 17  1  0
 19 18  1  0
 20 19  1  0
 21 20  1  0
 22 21  1  0
A    1
N02
A    2
C02
A    3
C03
A    4
C04
A    5
C07
A    6
C05
A    7
N01
A    8
C06
A    9
C08
A   10
C09
A   11
C13
A   12
C12
A   13
C14
A   14
C15
A   15
C16
A   16
N11
A   17
N17
A   18
C18
A   19
C19
A   20
C20
A   21
O21
A   22
C22
M  END
>  <Id>  (139) 
5FVO_D8H_A_800

>  <ChainId>  (139) 
A

>  <AsymId>  (139) 
D

>  <SeqNum>  (139) 
800

>  <Name>  (139) 
6-(2-(5-(3-methoxypropylamino)pyridin-3-yl)ethyl)-4-methylpyridin-2-amine

>  <SystematicName>  (139) 
6-[2-[5-(3-methoxypropylamino)pyridin-3-yl]ethyl]-4-methyl-pyridin-2-amine

>  <Synonyms>  (139) 


>  <Type>  (139) 
non-polymer

>  <Formula>  (139) 
C17 H24 N4 O

>  <ObservedFormula>  (139) 
C17 N4 O

>  <MolecularWeight>  (139) 
300.399

>  <ModifiedDate>  (139) 
2016-04-15

>  <Parent>  (139) 


>  <OneLetterCode>  (139) 


>  <SubcomponentList>  (139) 


>  <AmbiguousFlag>  (139) 
N

>  <InsertionCode>  (139) 


>  <InstanceId>  (139) 
5FVO_D8H_A_800

>  <ChemCompId>  (139) 
D8H

>  <PdbId>  (139) 
5FVO

>  <ResidueNumber>  (139) 
800

>  <InChI>  (139) 
InChI=1S/C17H24N4O/c1-13-8-15(21-17(18)9-13)5-4-14-10-16(12-19-11-14)20-6-3-7-22-2/h8-12,20H,3-7H2,1-2H3,(H2,18,21)

>  <InChIKey>  (139) 
DFYOVMPZILDHIP-UHFFFAOYSA-N

>  <SMILES>  (139) 
Cc1cc(nc(c1)N)CCc2cc(cnc2)NCCCOC

>  <MissingHeavyAtoms>  (139) 
0

>  <Model>  (139) 
1

>  <AltIds>  (139) 


>  <pKI>  (139) 
6.25

>  <ChemblID>  (139) 
CHEMBL3819582

>  <standardized_canonical_smiles>  (139) 
COCCCNc1cncc(CCc2cc(C)cc(N)n2)c1

$$$$
5FW0_W30_B_800
     RDKit          3D

 22 23  0  0  0  0  0  0  0  0999 V2000
   10.4630    1.7310   61.7180 C   0  0  0  0  0  0  0  0  0  0  0  0
   12.6660    1.1540   58.7000 C   0  0  0  0  0  0  0  0  0  0  0  0
   12.0820    1.7260   59.8230 C   0  0  0  0  0  0  0  0  0  0  0  0
   11.0740    1.0620   60.5110 C   0  0  0  0  0  0  0  0  0  0  0  0
   10.6460   -0.1900   60.0620 C   0  0  0  0  0  0  0  0  0  0  0  0
   11.2620   -0.7390   58.9200 C   0  0  0  0  0  0  0  0  0  0  0  0
   10.8870   -1.9560   58.4350 N   0  0  0  0  0  0  0  0  0  0  0  0
   12.2540   -0.0670   58.2820 N   0  0  0  0  0  0  0  0  0  0  0  0
   13.7820    1.8890   57.9820 C   0  0  0  0  0  0  0  0  0  0  0  0
   15.1150    1.3040   58.4440 C   0  0  0  0  0  0  0  0  0  0  0  0
   18.6190    3.1930   56.8650 C   0  0  0  0  0  0  0  0  0  0  0  0
   17.4300    3.9190   56.8720 C   0  0  0  0  0  0  0  0  0  0  0  0
   16.2530    3.3410   57.3700 C   0  0  0  0  0  0  0  0  0  0  0  0
   16.3170    2.0390   57.8690 C   0  0  0  0  0  0  0  0  0  0  0  0
   17.5420    1.3750   57.8330 C   0  0  0  0  0  0  0  0  0  0  0  0
   18.6520    1.9490   57.3450 N   0  0  0  0  0  0  0  0  0  0  0  0
   17.4670    5.2240   56.3530 N   0  0  0  0  0  0  0  0  0  0  0  0
   17.1740    5.4040   54.9400 C   0  0  0  0  0  0  0  0  0  0  0  0
   17.8430    6.3820   57.1690 C   0  0  0  0  0  0  0  0  0  0  0  0
   17.0000    6.4180   58.4420 C   0  0  0  0  0  0  0  0  0  0  0  0
   17.8650    6.4800   59.5810 O   0  0  0  0  0  0  0  0  0  0  0  0
   18.2540    5.1950   60.0690 C   0  0  0  0  0  0  0  0  0  0  0  0
  4  1  1  0
  3  2  2  0
  8  2  1  0
  9  2  1  0
  4  3  1  0
  5  4  2  0
  6  5  1  0
  7  6  1  0
  8  6  2  0
 10  9  1  0
 14 10  1  0
 12 11  2  0
 16 11  1  0
 13 12  1  0
 17 12  1  0
 14 13  2  0
 15 14  1  0
 16 15  2  0
 18 17  1  0
 19 17  1  0
 20 19  1  0
 21 20  1  0
 22 21  1  0
A    1
C07
A    2
C06
A    3
C05
A    4
C04
A    5
C03
A    6
C02
A    7
N02
A    8
N01
A    9
C08
A   10
C09
A   11
C16
A   12
C15
A   13
C14
A   14
C13
A   15
C12
A   16
N11
A   17
N17
A   18
C18
A   19
C19
A   20
C20
A   21
O21
A   22
C22
M  END
>  <Id>  (140) 
5FW0_W30_B_800

>  <ChainId>  (140) 
B

>  <AsymId>  (140) 
J

>  <SeqNum>  (140) 
800

>  <Name>  (140) 
6-(2-(5-((2-methoxyethyl)(methyl)amino)pyridin-3-yl)ethyl)-4-methylpyridin-2-amine

>  <SystematicName>  (140) 
6-[2-[5-[2-methoxyethyl(methyl)amino]pyridin-3-yl]ethyl]-4-methyl-pyridin-2-amine

>  <Synonyms>  (140) 


>  <Type>  (140) 
non-polymer

>  <Formula>  (140) 
C17 H24 N4 O

>  <ObservedFormula>  (140) 
C17 N4 O

>  <MolecularWeight>  (140) 
300.399

>  <ModifiedDate>  (140) 
2016-04-15

>  <Parent>  (140) 


>  <OneLetterCode>  (140) 


>  <SubcomponentList>  (140) 


>  <AmbiguousFlag>  (140) 
N

>  <InsertionCode>  (140) 


>  <InstanceId>  (140) 
5FW0_W30_B_800

>  <ChemCompId>  (140) 
W30

>  <PdbId>  (140) 
5FW0

>  <ResidueNumber>  (140) 
800

>  <InChI>  (140) 
InChI=1S/C17H24N4O/c1-13-8-15(20-17(18)9-13)5-4-14-10-16(12-19-11-14)21(2)6-7-22-3/h8-12H,4-7H2,1-3H3,(H2,18,20)

>  <InChIKey>  (140) 
PDIACSYIIWCGFI-UHFFFAOYSA-N

>  <SMILES>  (140) 
Cc1cc(nc(c1)N)CCc2cc(cnc2)N(C)CCOC

>  <MissingHeavyAtoms>  (140) 
0

>  <Model>  (140) 
1

>  <AltIds>  (140) 


>  <pKI>  (140) 
5.75

>  <ChemblID>  (140) 
CHEMBL3818649

>  <standardized_canonical_smiles>  (140) 
COCCN(C)c1cncc(CCc2cc(C)cc(N)n2)c1

$$$$
5FVP_WOS_B_800
     RDKit          3D

 22 24  0  0  0  0  0  0  0  0999 V2000
   10.4790    1.6910   61.3260 C   0  0  0  0  0  0  0  0  0  0  0  0
   12.6850    0.9720   58.3060 C   0  0  0  0  0  0  0  0  0  0  0  0
   12.1410    1.6150   59.4200 C   0  0  0  0  0  0  0  0  0  0  0  0
   11.0810    1.0330   60.1090 C   0  0  0  0  0  0  0  0  0  0  0  0
   10.5780   -0.1840   59.6670 C   0  0  0  0  0  0  0  0  0  0  0  0
   11.1360   -0.8030   58.5530 C   0  0  0  0  0  0  0  0  0  0  0  0
   10.6430   -1.9880   58.1060 N   0  0  0  0  0  0  0  0  0  0  0  0
   12.1640   -0.2140   57.9100 N   0  0  0  0  0  0  0  0  0  0  0  0
   13.8610    1.5450   57.5230 C   0  0  0  0  0  0  0  0  0  0  0  0
   13.9820    3.0540   57.6650 C   0  0  0  0  0  0  0  0  0  0  0  0
   17.4870    4.8190   55.9450 C   0  0  0  0  0  0  0  0  0  0  0  0
   17.0770    5.1800   57.2300 C   0  0  0  0  0  0  0  0  0  0  0  0
   15.9400    4.6050   57.7770 C   0  0  0  0  0  0  0  0  0  0  0  0
   15.2350    3.6580   57.0540 C   0  0  0  0  0  0  0  0  0  0  0  0
   15.6920    3.3380   55.7790 C   0  0  0  0  0  0  0  0  0  0  0  0
   16.7910    3.9070   55.2520 N   0  0  0  0  0  0  0  0  0  0  0  0
   17.7730    6.1310   57.9890 N   0  0  0  0  0  0  0  0  0  0  0  0
   19.1900    6.3880   57.8010 C   0  0  0  0  0  0  0  0  0  0  0  0
   19.2110    7.8360   57.3170 C   0  0  0  0  0  0  0  0  0  0  0  0
   18.4980    8.6860   58.2210 O   0  0  0  0  0  0  0  0  0  0  0  0
   17.1250    8.3220   58.3610 C   0  0  0  0  0  0  0  0  0  0  0  0
   17.0420    6.9220   58.9560 C   0  0  0  0  0  0  0  0  0  0  0  0
  4  1  1  0
  3  2  2  0
  8  2  1  0
  9  2  1  0
  4  3  1  0
  5  4  2  0
  6  5  1  0
  7  6  1  0
  8  6  2  0
 10  9  1  0
 14 10  1  0
 12 11  2  0
 16 11  1  0
 13 12  1  0
 17 12  1  0
 14 13  2  0
 15 14  1  0
 16 15  2  0
 18 17  1  0
 22 17  1  0
 19 18  1  0
 20 19  1  0
 21 20  1  0
 22 21  1  0
A    1
C07
A    2
C06
A    3
C05
A    4
C04
A    5
C03
A    6
C02
A    7
N02
A    8
N01
A    9
C08
A   10
C09
A   11
C16
A   12
C15
A   13
C14
A   14
C13
A   15
C12
A   16
N11
A   17
N21
A   18
C22
A   19
C23
A   20
O24
A   21
C25
A   22
C26
M  END
>  <Id>  (141) 
5FVP_WOS_B_800

>  <ChainId>  (141) 
B

>  <AsymId>  (141) 
I

>  <SeqNum>  (141) 
800

>  <Name>  (141) 
4-methyl-6-[2-(5-morpholin-4-ylpyridin-3-yl)ethyl]pyridin-2-amine

>  <SystematicName>  (141) 
4-methyl-6-[2-(5-morpholin-4-ylpyridin-3-yl)ethyl]pyridin-2-amine

>  <Synonyms>  (141) 


>  <Type>  (141) 
non-polymer

>  <Formula>  (141) 
C17 H22 N4 O

>  <ObservedFormula>  (141) 
C17 N4 O

>  <MolecularWeight>  (141) 
298.383

>  <ModifiedDate>  (141) 
2016-04-15

>  <Parent>  (141) 


>  <OneLetterCode>  (141) 


>  <SubcomponentList>  (141) 


>  <AmbiguousFlag>  (141) 
N

>  <InsertionCode>  (141) 


>  <InstanceId>  (141) 
5FVP_WOS_B_800

>  <ChemCompId>  (141) 
WOS

>  <PdbId>  (141) 
5FVP

>  <ResidueNumber>  (141) 
800

>  <InChI>  (141) 
InChI=1S/C17H22N4O/c1-13-8-15(20-17(18)9-13)3-2-14-10-16(12-19-11-14)21-4-6-22-7-5-21/h8-12H,2-7H2,1H3,(H2,18,20)

>  <InChIKey>  (141) 
ILLMLHPSAJJCTB-UHFFFAOYSA-N

>  <SMILES>  (141) 
Cc1cc(nc(c1)N)CCc2cc(cnc2)N3CCOCC3

>  <MissingHeavyAtoms>  (141) 
0

>  <Model>  (141) 
1

>  <AltIds>  (141) 


>  <pKI>  (141) 
6.26

>  <ChemblID>  (141) 
CHEMBL3819644

>  <standardized_canonical_smiles>  (141) 
Cc1cc(N)nc(CCc2cncc(N3CCOCC3)c2)c1

$$$$
3JX5_J14_B_800
     RDKit          3D

 27 29  0  0  0  0  0  0  0  0999 V2000
   18.3870    2.6470   57.3960 C   0  0  0  0  0  0  0  0  0  0  0  0
   17.1520    2.9490   58.1160 N   0  0  0  0  0  0  0  0  0  0  0  0
   19.3350    3.8360   57.2530 C   0  0  0  0  0  0  0  0  0  0  0  0
   19.1770    4.4960   55.9650 N   0  0  0  0  0  0  0  0  0  0  0  0
   20.2370    4.5030   54.9620 C   0  0  0  0  0  0  0  0  0  0  0  0
   19.7660    5.1160   53.6370 C   0  0  0  0  0  0  0  0  0  0  0  0
   14.9510    5.0890   57.3370 N   0  0  0  0  0  0  0  0  0  0  0  0
   19.9480    6.6200   53.6510 C   0  0  0  0  0  0  0  0  0  0  0  0
   12.0950    0.0990   58.3460 N   0  0  0  0  0  0  0  0  0  0  0  0
   18.9800    7.4580   54.2190 C   0  0  0  0  0  0  0  0  0  0  0  0
   19.1780    8.8430   54.2260 C   0  0  0  0  0  0  0  0  0  0  0  0
   18.2550    9.6610   54.7670 F   0  0  0  0  0  0  0  0  0  0  0  0
   20.3360    9.3910   53.6700 C   0  0  0  0  0  0  0  0  0  0  0  0
   21.2950    8.5550   53.0980 C   0  0  0  0  0  0  0  0  0  0  0  0
   21.1030    7.1720   53.0900 C   0  0  0  0  0  0  0  0  0  0  0  0
   15.8750    4.2540   56.6010 C   0  0  0  0  0  0  0  0  0  0  0  0
   12.5330    1.3320   58.7210 C   0  0  0  0  0  0  0  0  0  0  0  0
   15.8990    2.9520   57.3930 C   0  0  0  0  0  0  0  0  0  0  0  0
   12.0450    1.8590   59.9310 C   0  0  0  0  0  0  0  0  0  0  0  0
   14.6470    2.9140   58.2810 C   0  0  0  0  0  0  0  0  0  0  0  0
   11.1650    1.1120   60.7250 C   0  0  0  0  0  0  0  0  0  0  0  0
   14.1460    4.3590   58.3050 C   0  0  0  0  0  0  0  0  0  0  0  0
   10.7540   -0.1400   60.2960 C   0  0  0  0  0  0  0  0  0  0  0  0
   11.2280   -0.6310   59.0840 C   0  0  0  0  0  0  0  0  0  0  0  0
   10.8400   -1.8490   58.6440 N   0  0  0  0  0  0  0  0  0  0  0  0
   13.4950    2.0470   57.7590 C   0  0  0  0  0  0  0  0  0  0  0  0
   10.6460    1.6300   62.0370 C   0  0  0  0  0  0  0  0  0  0  0  0
  2  1  1  0
  3  1  1  0
 18  2  1  0
  4  3  1  0
  5  4  1  0
  6  5  1  0
  8  6  1  0
 16  7  1  0
 22  7  1  0
 10  8  2  0
 15  8  1  0
 17  9  2  0
 24  9  1  0
 11 10  1  0
 12 11  1  0
 13 11  2  0
 14 13  1  0
 15 14  2  0
 18 16  1  0
 19 17  1  0
 26 17  1  0
 20 18  1  0
 21 19  2  0
 22 20  1  0
 26 20  1  0
 23 21  1  0
 27 21  1  0
 24 23  2  0
 25 24  1  0
A    1
C1
A    2
N1
A    3
C2
A    4
N2
A    5
C3
A    6
C4
A    7
N1'
A    8
C11
A    9
N11
A   10
C12
A   11
C13
A   12
F13
A   13
C14
A   14
C15
A   15
C16
A   16
C2'
A   17
C21
A   18
C3'
A   19
C31
A   20
C4'
A   21
C41
A   22
C5'
A   23
C51
A   24
C61
A   25
N61
A   26
C71
A   27
C81
M  END
>  <Id>  (142) 
3JX5_J14_B_800

>  <ChainId>  (142) 
B

>  <AsymId>  (142) 
J

>  <SeqNum>  (142) 
800

>  <Name>  (142) 
N-{(3S,4R)-4-[(6-amino-4-methylpyridin-2-yl)methyl]pyrrolidin-3-yl}-N'-[2-(3-fluorophenyl)ethyl]ethane-1,2-diamine

>  <SystematicName>  (142) 
N-[(3S,4R)-4-[(6-azanyl-4-methyl-pyridin-2-yl)methyl]pyrrolidin-3-yl]-N'-[2-(3-fluorophenyl)ethyl]ethane-1,2-diamine

>  <Synonyms>  (142) 
N1-{(3'S,4'R)-4'-[(6"-amino-4"-methylpyridin-2"-yl)methyl]pyrrolidin-3'-yl}-N2-(3'-fluorophenethyl)ethane-1,2-diamine tetrahydrochloride

>  <Type>  (142) 
NON-POLYMER

>  <Formula>  (142) 
C21 H30 F N5

>  <ObservedFormula>  (142) 
C21 F N5

>  <MolecularWeight>  (142) 
371.495

>  <ModifiedDate>  (142) 
2011-06-04

>  <Parent>  (142) 


>  <OneLetterCode>  (142) 


>  <SubcomponentList>  (142) 


>  <AmbiguousFlag>  (142) 
N

>  <InsertionCode>  (142) 


>  <InstanceId>  (142) 
3JX5_J14_B_800

>  <ChemCompId>  (142) 
J14

>  <PdbId>  (142) 
3JX5

>  <ResidueNumber>  (142) 
800

>  <InChI>  (142) 
InChI=1S/C21H30FN5/c1-15-9-19(27-21(23)10-15)12-17-13-25-14-20(17)26-8-7-24-6-5-16-3-2-4-18(22)11-16/h2-4,9-11,17,20,24-26H,5-8,12-14H2,1H3,(H2,23,27)/t17-,20-/m1/s1

>  <InChIKey>  (142) 
PUOKPLCASUFBAN-YLJYHZDGSA-N

>  <SMILES>  (142) 
Cc1cc(nc(c1)N)C[C@@H]2CNC[C@H]2NCCNCCc3cccc(c3)F

>  <MissingHeavyAtoms>  (142) 
0

>  <Model>  (142) 
1

>  <AltIds>  (142) 


>  <pKI>  (142) 
4.58

>  <ChemblID>  (142) 
CHEMBL1233717

>  <standardized_canonical_smiles>  (142) 
Cc1cc(N)nc(C[C@@H]2CNC[C@H]2NCCNCCc2cccc(F)c2)c1

$$$$
3JWV_J14_B_800
     RDKit          3D

 27 29  0  0  0  0  0  0  0  0999 V2000
   18.7340    2.7550   56.6580 C   0  0  0  0  0  0  0  0  0  0  0  0
   17.5650    2.6860   57.5370 N   0  0  0  0  0  0  0  0  0  0  0  0
   19.6310    3.9770   56.8530 C   0  0  0  0  0  0  0  0  0  0  0  0
   19.4650    4.9600   55.7990 N   0  0  0  0  0  0  0  0  0  0  0  0
   19.0830    6.3270   56.1060 C   0  0  0  0  0  0  0  0  0  0  0  0
   18.3650    6.9430   54.9140 C   0  0  0  0  0  0  0  0  0  0  0  0
   15.5330    4.8980   57.4660 N   0  0  0  0  0  0  0  0  0  0  0  0
   19.1390    8.0960   54.3120 C   0  0  0  0  0  0  0  0  0  0  0  0
   12.3430    0.0310   58.1240 N   0  0  0  0  0  0  0  0  0  0  0  0
   18.4530    9.2680   54.0040 C   0  0  0  0  0  0  0  0  0  0  0  0
   19.1320   10.3520   53.4500 C   0  0  0  0  0  0  0  0  0  0  0  0
   18.4520   11.4750   53.1680 F   0  0  0  0  0  0  0  0  0  0  0  0
   20.5040   10.2720   53.1910 C   0  0  0  0  0  0  0  0  0  0  0  0
   21.1930    9.0940   53.4940 C   0  0  0  0  0  0  0  0  0  0  0  0
   20.5120    8.0060   54.0480 C   0  0  0  0  0  0  0  0  0  0  0  0
   16.1180    4.1490   56.3820 C   0  0  0  0  0  0  0  0  0  0  0  0
   12.7940    1.2740   58.4540 C   0  0  0  0  0  0  0  0  0  0  0  0
   16.2310    2.7450   56.9710 C   0  0  0  0  0  0  0  0  0  0  0  0
   12.2490    1.8610   59.6150 C   0  0  0  0  0  0  0  0  0  0  0  0
   15.1220    2.5830   58.0150 C   0  0  0  0  0  0  0  0  0  0  0  0
   11.3070    1.1690   60.3990 C   0  0  0  0  0  0  0  0  0  0  0  0
   14.8150    4.0350   58.3860 C   0  0  0  0  0  0  0  0  0  0  0  0
   10.8840   -0.1040   60.0160 C   0  0  0  0  0  0  0  0  0  0  0  0
   11.4260   -0.6500   58.8470 C   0  0  0  0  0  0  0  0  0  0  0  0
   11.0450   -1.8750   58.4320 N   0  0  0  0  0  0  0  0  0  0  0  0
   13.8220    1.9360   57.5080 C   0  0  0  0  0  0  0  0  0  0  0  0
   10.7240    1.7690   61.6550 C   0  0  0  0  0  0  0  0  0  0  0  0
  2  1  1  0
  3  1  1  0
 18  2  1  0
  4  3  1  0
  5  4  1  0
  6  5  1  0
  8  6  1  0
 16  7  1  0
 22  7  1  0
 10  8  2  0
 15  8  1  0
 17  9  2  0
 24  9  1  0
 11 10  1  0
 12 11  1  0
 13 11  2  0
 14 13  1  0
 15 14  2  0
 18 16  1  0
 19 17  1  0
 26 17  1  0
 20 18  1  0
 21 19  2  0
 22 20  1  0
 26 20  1  0
 23 21  1  0
 27 21  1  0
 24 23  2  0
 25 24  1  0
A    1
C1
A    2
N1
A    3
C2
A    4
N2
A    5
C3
A    6
C4
A    7
N1'
A    8
C11
A    9
N11
A   10
C12
A   11
C13
A   12
F13
A   13
C14
A   14
C15
A   15
C16
A   16
C2'
A   17
C21
A   18
C3'
A   19
C31
A   20
C4'
A   21
C41
A   22
C5'
A   23
C51
A   24
C61
A   25
N61
A   26
C71
A   27
C81
M  END
>  <Id>  (143) 
3JWV_J14_B_800

>  <ChainId>  (143) 
B

>  <AsymId>  (143) 
J

>  <SeqNum>  (143) 
800

>  <Name>  (143) 
N-{(3S,4R)-4-[(6-amino-4-methylpyridin-2-yl)methyl]pyrrolidin-3-yl}-N'-[2-(3-fluorophenyl)ethyl]ethane-1,2-diamine

>  <SystematicName>  (143) 
N-[(3S,4R)-4-[(6-azanyl-4-methyl-pyridin-2-yl)methyl]pyrrolidin-3-yl]-N'-[2-(3-fluorophenyl)ethyl]ethane-1,2-diamine

>  <Synonyms>  (143) 
N1-{(3'S,4'R)-4'-[(6"-amino-4"-methylpyridin-2"-yl)methyl]pyrrolidin-3'-yl}-N2-(3'-fluorophenethyl)ethane-1,2-diamine tetrahydrochloride

>  <Type>  (143) 
NON-POLYMER

>  <Formula>  (143) 
C21 H30 F N5

>  <ObservedFormula>  (143) 
C21 F N5

>  <MolecularWeight>  (143) 
371.495

>  <ModifiedDate>  (143) 
2011-06-04

>  <Parent>  (143) 


>  <OneLetterCode>  (143) 


>  <SubcomponentList>  (143) 


>  <AmbiguousFlag>  (143) 
N

>  <InsertionCode>  (143) 


>  <InstanceId>  (143) 
3JWV_J14_B_800

>  <ChemCompId>  (143) 
J14

>  <PdbId>  (143) 
3JWV

>  <ResidueNumber>  (143) 
800

>  <InChI>  (143) 
InChI=1S/C21H30FN5/c1-15-9-19(27-21(23)10-15)12-17-13-25-14-20(17)26-8-7-24-6-5-16-3-2-4-18(22)11-16/h2-4,9-11,17,20,24-26H,5-8,12-14H2,1H3,(H2,23,27)/t17-,20-/m1/s1

>  <InChIKey>  (143) 
PUOKPLCASUFBAN-YLJYHZDGSA-N

>  <SMILES>  (143) 
Cc1cc(nc(c1)N)C[C@@H]2CNC[C@H]2NCCNCCc3cccc(c3)F

>  <MissingHeavyAtoms>  (143) 
0

>  <Model>  (143) 
1

>  <AltIds>  (143) 


>  <pKI>  (143) 
4.58

>  <ChemblID>  (143) 
CHEMBL1233717

>  <standardized_canonical_smiles>  (143) 
Cc1cc(N)nc(C[C@@H]2CNC[C@H]2NCCNCCc2cccc(F)c2)c1

$$$$
5VUU_9OJ_B_803
     RDKit          3D

 25 27  0  0  0  0  0  0  0  0999 V2000
   23.1280    7.3930   53.3560 N   0  0  0  0  0  0  0  0  0  0  0  0
   22.0570    7.1520   53.7230 C   0  0  0  0  0  0  0  0  0  0  0  0
   20.8820    6.8650   54.1560 C   0  0  0  0  0  0  0  0  0  0  0  0
   19.9520    7.8380   54.4840 C   0  0  0  0  0  0  0  0  0  0  0  0
   20.2880    9.3030   54.3000 C   0  0  0  0  0  0  0  0  0  0  0  0
   20.5750    5.5210   54.3310 C   0  0  0  0  0  0  0  0  0  0  0  0
   19.3350    5.1540   54.8200 C   0  0  0  0  0  0  0  0  0  0  0  0
   18.3910    6.1190   55.1430 C   0  0  0  0  0  0  0  0  0  0  0  0
   18.6970    7.4690   54.9800 C   0  0  0  0  0  0  0  0  0  0  0  0
   17.0460    5.6760   55.6760 C   0  0  0  0  0  0  0  0  0  0  0  0
   17.1070    4.1860   55.9960 C   0  0  0  0  0  0  0  0  0  0  0  0
   16.1810    3.8290   57.0840 N   0  0  0  0  0  0  0  0  0  0  0  0
   14.7940    4.1710   56.7260 C   0  0  0  0  0  0  0  0  0  0  0  0
   13.8350    3.3990   57.6110 C   0  0  0  0  0  0  0  0  0  0  0  0
   13.5810    2.0410   57.4100 C   0  0  0  0  0  0  0  0  0  0  0  0
   12.7030    1.3510   58.2490 C   0  0  0  0  0  0  0  0  0  0  0  0
   12.0810    2.0230   59.2960 C   0  0  0  0  0  0  0  0  0  0  0  0
   12.3320    3.3750   59.4940 C   0  0  0  0  0  0  0  0  0  0  0  0
   13.2020    4.0570   58.6540 C   0  0  0  0  0  0  0  0  0  0  0  0
   12.4540    0.0350   58.0550 N   0  0  0  0  0  0  0  0  0  0  0  0
   11.5980   -0.6440   58.8510 C   0  0  0  0  0  0  0  0  0  0  0  0
   11.3600   -1.9570   58.6350 N   0  0  0  0  0  0  0  0  0  0  0  0
   10.9610    0.0000   59.9160 C   0  0  0  0  0  0  0  0  0  0  0  0
   11.2050    1.3470   60.1370 C   0  0  0  0  0  0  0  0  0  0  0  0
   10.5230    2.0600   61.2790 C   0  0  0  0  0  0  0  0  0  0  0  0
  2  1  3  0
  3  2  1  0
  4  3  2  0
  6  3  1  0
  5  4  1  0
  9  4  1  0
  7  6  2  0
  8  7  1  0
  9  8  2  0
 10  8  1  0
 11 10  1  0
 12 11  1  0
 13 12  1  0
 14 13  1  0
 15 14  2  0
 19 14  1  0
 16 15  1  0
 17 16  2  0
 20 16  1  0
 18 17  1  0
 24 17  1  0
 19 18  2  0
 21 20  2  0
 22 21  1  0
 23 21  1  0
 24 23  2  0
 25 24  1  0
A    1
N25
A    2
C24
A    3
C23
A    4
C02
A    5
C01
A    6
C22
A    7
C21
A    8
C04
A    9
C03
A   10
C05
A   11
C06
A   12
N07
A   13
C08
A   14
C09
A   15
C20
A   16
C19
A   17
C12
A   18
C11
A   19
C10
A   20
N18
A   21
C16
A   22
N17
A   23
C15
A   24
C13
A   25
C14
M  END
>  <Id>  (144) 
5VUU_9OJ_B_803

>  <ChainId>  (144) 
B

>  <AsymId>  (144) 
K

>  <SeqNum>  (144) 
803

>  <Name>  (144) 
4-(2-{[(2-amino-4-methylquinolin-7-yl)methyl]amino}ethyl)-2-methylbenzonitrile

>  <SystematicName>  (144) 
4-[2-[(2-azanyl-4-methyl-quinolin-7-yl)methylamino]ethyl]-2-methyl-benzenecarbonitrile

>  <Synonyms>  (144) 


>  <Type>  (144) 
NON-POLYMER

>  <Formula>  (144) 
C21 H22 N4

>  <ObservedFormula>  (144) 
C21 N4

>  <MolecularWeight>  (144) 
330.426

>  <ModifiedDate>  (144) 
2017-08-11

>  <Parent>  (144) 


>  <OneLetterCode>  (144) 


>  <SubcomponentList>  (144) 


>  <AmbiguousFlag>  (144) 
N

>  <InsertionCode>  (144) 


>  <InstanceId>  (144) 
5VUU_9OJ_B_803

>  <ChemCompId>  (144) 
9OJ

>  <PdbId>  (144) 
5VUU

>  <ResidueNumber>  (144) 
803

>  <InChI>  (144) 
InChI=1S/C21H22N4/c1-14-9-16(3-5-18(14)12-22)7-8-24-13-17-4-6-19-15(2)10-21(23)25-20(19)11-17/h3-6,9-11,24H,7-8,13H2,1-2H3,(H2,23,25)

>  <InChIKey>  (144) 
GMHLRRHIOCDMQV-UHFFFAOYSA-N

>  <SMILES>  (144) 
Cc1cc(ccc1C#N)CCNCc2ccc3c(cc(nc3c2)N)C

>  <MissingHeavyAtoms>  (144) 
0

>  <Model>  (144) 
1

>  <AltIds>  (144) 


>  <pKI>  (144) 
7.6

>  <ChemblID>  (144) 
-

>  <standardized_canonical_smiles>  (144) 
Cc1cc(CCNCc2ccc3c(C)cc(N)nc3c2)ccc1C#N

$$$$
5VUR_9P7_B_803
     RDKit          3D

 24 26  0  0  0  0  0  0  0  0999 V2000
   13.0240    1.4040   58.6240 C   0  0  0  0  0  0  0  0  0  0  0  0
   15.9860    3.5010   57.5850 C   0  0  0  0  0  0  0  0  0  0  0  0
   17.2770    4.9300   56.1970 C   0  0  0  0  0  0  0  0  0  0  0  0
   17.2650    6.2070   55.3690 C   0  0  0  0  0  0  0  0  0  0  0  0
   23.6180    7.6470   53.7960 N   0  0  0  0  0  0  0  0  0  0  0  0
   22.5190    7.4250   54.0750 C   0  0  0  0  0  0  0  0  0  0  0  0
   21.2890    7.2160   54.3910 C   0  0  0  0  0  0  0  0  0  0  0  0
   20.8830    5.8720   54.4140 C   0  0  0  0  0  0  0  0  0  0  0  0
   20.3930    8.2230   54.6820 C   0  0  0  0  0  0  0  0  0  0  0  0
   20.8290    9.6660   54.6540 C   0  0  0  0  0  0  0  0  0  0  0  0
   19.0750    7.9190   55.0030 C   0  0  0  0  0  0  0  0  0  0  0  0
   18.6820    6.5860   55.0290 C   0  0  0  0  0  0  0  0  0  0  0  0
   19.5770    5.5720   54.7360 C   0  0  0  0  0  0  0  0  0  0  0  0
   15.9210    4.6650   56.6950 N   0  0  0  0  0  0  0  0  0  0  0  0
   14.6370    3.1380   58.1570 C   0  0  0  0  0  0  0  0  0  0  0  0
   14.2520    1.8030   58.1070 C   0  0  0  0  0  0  0  0  0  0  0  0
   13.7770    4.0840   58.7230 C   0  0  0  0  0  0  0  0  0  0  0  0
   12.5450    3.6890   59.2550 C   0  0  0  0  0  0  0  0  0  0  0  0
   12.1680    2.3490   59.1990 C   0  0  0  0  0  0  0  0  0  0  0  0
   10.9500    1.9380   59.7190 C   0  0  0  0  0  0  0  0  0  0  0  0
   10.6350    0.5810   59.6330 C   0  0  0  0  0  0  0  0  0  0  0  0
   11.5110   -0.3370   59.0360 C   0  0  0  0  0  0  0  0  0  0  0  0
   11.1890   -1.6580   58.9530 N   0  0  0  0  0  0  0  0  0  0  0  0
   12.6950    0.0910   58.5490 N   0  0  0  0  0  0  0  0  0  0  0  0
 16  1  2  0
 19  1  1  0
 24  1  1  0
 14  2  1  0
 15  2  1  0
  4  3  1  0
 14  3  1  0
 12  4  1  0
  6  5  3  0
  7  6  1  0
  8  7  2  0
  9  7  1  0
 13  8  1  0
 10  9  1  0
 11  9  2  0
 12 11  1  0
 13 12  2  0
 16 15  1  0
 17 15  2  0
 18 17  1  0
 19 18  2  0
 20 19  1  0
 21 20  2  0
 22 21  1  0
 23 22  1  0
 24 22  2  0
A    1
C10
A    2
C11
A    3
C13
A    4
C14
A    5
N29
A    6
C28
A    7
C24
A    8
C25
A    9
C23
A   10
C27
A   11
C22
A   12
C21
A   13
C26
A   14
N12
A   15
C08
A   16
C09
A   17
C07
A   18
C06
A   19
C05
A   20
C04
A   21
C03
A   22
C02
A   23
N02
A   24
N01
M  END
>  <Id>  (145) 
5VUR_9P7_B_803

>  <ChainId>  (145) 
B

>  <AsymId>  (145) 
J

>  <SeqNum>  (145) 
803

>  <Name>  (145) 
4-(2-{[(2-aminoquinolin-7-yl)methyl]amino}ethyl)-2-methylbenzonitrile

>  <SystematicName>  (145) 
4-[2-[(2-azanylquinolin-7-yl)methylamino]ethyl]-2-methyl-benzenecarbonitrile

>  <Synonyms>  (145) 


>  <Type>  (145) 
NON-POLYMER

>  <Formula>  (145) 
C20 H20 N4

>  <ObservedFormula>  (145) 
C20 N4

>  <MolecularWeight>  (145) 
316.4

>  <ModifiedDate>  (145) 
2017-08-11

>  <Parent>  (145) 


>  <OneLetterCode>  (145) 


>  <SubcomponentList>  (145) 


>  <AmbiguousFlag>  (145) 
N

>  <InsertionCode>  (145) 


>  <InstanceId>  (145) 
5VUR_9P7_B_803

>  <ChemCompId>  (145) 
9P7

>  <PdbId>  (145) 
5VUR

>  <ResidueNumber>  (145) 
803

>  <InChI>  (145) 
InChI=1S/C20H20N4/c1-14-10-15(2-5-18(14)12-21)8-9-23-13-16-3-4-17-6-7-20(22)24-19(17)11-16/h2-7,10-11,23H,8-9,13H2,1H3,(H2,22,24)

>  <InChIKey>  (145) 
OFELXUWNGBXCPK-UHFFFAOYSA-N

>  <SMILES>  (145) 
Cc1cc(ccc1C#N)CCNCc2ccc3ccc(nc3c2)N

>  <MissingHeavyAtoms>  (145) 
0

>  <Model>  (145) 
1

>  <AltIds>  (145) 


>  <pKI>  (145) 
7.68

>  <ChemblID>  (145) 
-

>  <standardized_canonical_smiles>  (145) 
Cc1cc(CCNCc2ccc3ccc(N)nc3c2)ccc1C#N

$$$$
5VUN_9OM_B_803
     RDKit          3D

 23 25  0  0  0  0  0  0  0  0999 V2000
   11.1450   -1.5730   58.8750 N   0  0  0  0  0  0  0  0  0  0  0  0
   11.4090   -0.2430   59.0190 C   0  0  0  0  0  0  0  0  0  0  0  0
   12.5790    0.2390   58.5680 N   0  0  0  0  0  0  0  0  0  0  0  0
   12.8820    1.5530   58.6630 C   0  0  0  0  0  0  0  0  0  0  0  0
   10.5020    0.6330   59.6240 C   0  0  0  0  0  0  0  0  0  0  0  0
   10.7800    1.9990   59.7420 C   0  0  0  0  0  0  0  0  0  0  0  0
   12.0020    2.4650   59.2460 C   0  0  0  0  0  0  0  0  0  0  0  0
   12.3530    3.8150   59.3310 C   0  0  0  0  0  0  0  0  0  0  0  0
   13.5910    4.2420   58.8320 C   0  0  0  0  0  0  0  0  0  0  0  0
   14.4670    3.3160   58.2640 C   0  0  0  0  0  0  0  0  0  0  0  0
   14.1170    1.9740   58.1940 C   0  0  0  0  0  0  0  0  0  0  0  0
   15.8390    3.6820   57.7510 C   0  0  0  0  0  0  0  0  0  0  0  0
   15.9310    4.6110   56.6300 N   0  0  0  0  0  0  0  0  0  0  0  0
   17.3840    4.8650   56.6180 C   0  0  0  0  0  0  0  0  0  0  0  0
   17.8690    5.6140   55.3890 C   0  0  0  0  0  0  0  0  0  0  0  0
   18.9160    6.6020   55.8790 C   0  0  0  0  0  0  0  0  0  0  0  0
   19.8640    7.0540   54.7970 C   0  0  0  0  0  0  0  0  0  0  0  0
   20.8180    6.1880   54.2650 C   0  0  0  0  0  0  0  0  0  0  0  0
   19.7910    8.3610   54.3510 C   0  0  0  0  0  0  0  0  0  0  0  0
   18.7610    9.3040   54.9190 C   0  0  0  0  0  0  0  0  0  0  0  0
   20.6750    8.7860   53.3670 C   0  0  0  0  0  0  0  0  0  0  0  0
   21.6060    7.8830   52.8590 C   0  0  0  0  0  0  0  0  0  0  0  0
   21.6580    6.6220   53.3150 N   0  0  0  0  0  0  0  0  0  0  0  0
  2  1  1  0
  3  2  2  0
  5  2  1  0
  4  3  1  0
  7  4  2  0
 11  4  1  0
  6  5  2  0
  7  6  1  0
  8  7  1  0
  9  8  2  0
 10  9  1  0
 11 10  2  0
 12 10  1  0
 13 12  1  0
 14 13  1  0
 15 14  1  0
 16 15  1  0
 17 16  1  0
 18 17  2  0
 19 17  1  0
 23 18  1  0
 20 19  1  0
 21 19  2  0
 22 21  1  0
 23 22  2  0
A    1
N02
A    2
C02
A    3
N01
A    4
C10
A    5
C03
A    6
C04
A    7
C05
A    8
C06
A    9
C07
A   10
C08
A   11
C09
A   12
C11
A   13
N12
A   14
C13
A   15
C14
A   16
C15
A   17
C23
A   18
C22
A   19
C24
A   20
C27
A   21
C25
A   22
C26
A   23
N21
M  END
>  <Id>  (146) 
5VUN_9OM_B_803

>  <ChainId>  (146) 
B

>  <AsymId>  (146) 
K

>  <SeqNum>  (146) 
803

>  <Name>  (146) 
7-({[3-(4-methylpyridin-3-yl)propyl]amino}methyl)quinolin-2-amine

>  <SystematicName>  (146) 
7-[[3-(4-methylpyridin-3-yl)propylamino]methyl]quinolin-2-amine

>  <Synonyms>  (146) 


>  <Type>  (146) 
NON-POLYMER

>  <Formula>  (146) 
C19 H22 N4

>  <ObservedFormula>  (146) 
C19 N4

>  <MolecularWeight>  (146) 
306.405

>  <ModifiedDate>  (146) 
2017-08-11

>  <Parent>  (146) 


>  <OneLetterCode>  (146) 


>  <SubcomponentList>  (146) 


>  <AmbiguousFlag>  (146) 
N

>  <InsertionCode>  (146) 


>  <InstanceId>  (146) 
5VUN_9OM_B_803

>  <ChemCompId>  (146) 
9OM

>  <PdbId>  (146) 
5VUN

>  <ResidueNumber>  (146) 
803

>  <InChI>  (146) 
InChI=1S/C19H22N4/c1-14-8-10-22-13-17(14)3-2-9-21-12-15-4-5-16-6-7-19(20)23-18(16)11-15/h4-8,10-11,13,21H,2-3,9,12H2,1H3,(H2,20,23)

>  <InChIKey>  (146) 
DURWIDBNTFVYBY-UHFFFAOYSA-N

>  <SMILES>  (146) 
Cc1ccncc1CCCNCc2ccc3ccc(nc3c2)N

>  <MissingHeavyAtoms>  (146) 
0

>  <Model>  (146) 
1

>  <AltIds>  (146) 


>  <pKI>  (146) 
7.05

>  <ChemblID>  (146) 
-

>  <standardized_canonical_smiles>  (146) 
Cc1ccncc1CCCNCc1ccc2ccc(N)nc2c1

$$$$
4CX4_HW9_B_800
     RDKit          3D

 27 29  0  0  0  0  0  0  0  0999 V2000
   15.5570   10.5440   54.9210 N   0  0  0  0  0  0  0  0  0  0  0  0
   16.8140   10.0420   54.9210 C   0  0  0  0  0  0  0  0  0  0  0  0
   17.8940   10.8310   54.5180 C   0  0  0  0  0  0  0  0  0  0  0  0
   19.1830   10.2830   54.5380 C   0  0  0  0  0  0  0  0  0  0  0  0
   19.3730    8.9780   54.9560 C   0  0  0  0  0  0  0  0  0  0  0  0
   20.3980   11.0610   54.1210 C   0  0  0  0  0  0  0  0  0  0  0  0
   17.0310    8.7620   55.3260 N   0  0  0  0  0  0  0  0  0  0  0  0
   18.2750    8.2180   55.3470 C   0  0  0  0  0  0  0  0  0  0  0  0
   18.4650    6.7810   55.7990 C   0  0  0  0  0  0  0  0  0  0  0  0
   19.7660    6.1430   55.3050 C   0  0  0  0  0  0  0  0  0  0  0  0
   19.7770    4.6560   55.6220 C   0  0  0  0  0  0  0  0  0  0  0  0
   20.5100    3.9960   54.4670 C   0  0  0  0  0  0  0  0  0  0  0  0
   20.3570    4.9270   53.3620 N   0  0  0  0  0  0  0  0  0  0  0  0
   19.9400    6.2490   53.7830 C   0  0  0  0  0  0  0  0  0  0  0  0
   18.4190    4.2120   55.6100 O   0  0  0  0  0  0  0  0  0  0  0  0
   18.0760    3.4020   56.7220 C   0  0  0  0  0  0  0  0  0  0  0  0
   16.5920    3.6120   56.9820 C   0  0  0  0  0  0  0  0  0  0  0  0
   16.2230    2.5430   57.9830 C   0  0  0  0  0  0  0  0  0  0  0  0
   14.7360    2.1660   57.9840 C   0  0  0  0  0  0  0  0  0  0  0  0
   14.5750    0.8920   58.8010 C   0  0  0  0  0  0  0  0  0  0  0  0
   13.0880    0.4940   59.1180 C   0  0  0  0  0  0  0  0  0  0  0  0
   12.4570   -0.4810   58.3840 N   0  0  0  0  0  0  0  0  0  0  0  0
   11.1820   -0.8880   58.6500 C   0  0  0  0  0  0  0  0  0  0  0  0
   10.4750   -0.3210   59.7070 C   0  0  0  0  0  0  0  0  0  0  0  0
   11.0440    0.7000   60.4520 C   0  0  0  0  0  0  0  0  0  0  0  0
   12.3610    1.0890   60.1740 C   0  0  0  0  0  0  0  0  0  0  0  0
   10.2480    1.3380   61.5810 C   0  0  0  0  0  0  0  0  0  0  0  0
  2  1  1  0
  3  2  2  0
  7  2  1  0
  4  3  1  0
  5  4  2  0
  6  4  1  0
  8  5  1  0
  8  7  2  0
  9  8  1  0
 10  9  1  0
 11 10  1  0
 14 10  1  0
 12 11  1  0
 15 11  1  0
 13 12  1  0
 14 13  1  0
 16 15  1  0
 17 16  1  0
 18 17  1  0
 19 18  1  0
 20 19  1  0
 21 20  1  0
 22 21  2  0
 26 21  1  0
 23 22  1  0
 24 23  2  0
 25 24  1  0
 26 25  2  0
 27 25  1  0
A    1
N02
A    2
C02
A    3
C03
A    4
C04
A    5
C05
A    6
C07
A    7
N01
A    8
C06
A    9
C08
A   10
C4'
A   11
C3'
A   12
C2'
A   13
N1'
A   14
C5'
A   15
O09
A   16
C10
A   17
C11
A   18
C12
A   19
C13
A   20
C14
A   21
C26
A   22
N21
A   23
C22
A   24
C23
A   25
C24
A   26
C25
A   27
C27
M  END
>  <Id>  (147) 
4CX4_HW9_B_800

>  <ChainId>  (147) 
B

>  <AsymId>  (147) 
I

>  <SeqNum>  (147) 
800

>  <Name>  (147) 
4-methyl-6-{[(3R,4R)-4-{[5-(4-methylpyridin-2-yl)pentyl]oxy}pyrrolidin-3-yl]methyl}pyridin-2-amine

>  <SystematicName>  (147) 
4-methyl-6-[[(3R,4R)-4-[5-(4-methylpyridin-2-yl)pentoxy]pyrrolidin-3-yl]methyl]pyridin-2-amine

>  <Synonyms>  (147) 


>  <Type>  (147) 
NON-POLYMER

>  <Formula>  (147) 
C22 H32 N4 O

>  <ObservedFormula>  (147) 
C22 N4 O

>  <MolecularWeight>  (147) 
368.516

>  <ModifiedDate>  (147) 
2012-07-06

>  <Parent>  (147) 


>  <OneLetterCode>  (147) 


>  <SubcomponentList>  (147) 


>  <AmbiguousFlag>  (147) 
N

>  <InsertionCode>  (147) 


>  <InstanceId>  (147) 
4CX4_HW9_B_800

>  <ChemCompId>  (147) 
HW9

>  <PdbId>  (147) 
4CX4

>  <ResidueNumber>  (147) 
800

>  <InChI>  (147) 
InChI=1S/C22H32N4O/c1-16-7-8-25-19(10-16)6-4-3-5-9-27-21-15-24-14-18(21)13-20-11-17(2)12-22(23)26-20/h7-8,10-12,18,21,24H,3-6,9,13-15H2,1-2H3,(H2,23,26)/t18-,21+/m1/s1

>  <InChIKey>  (147) 
ZWYPXJQSZOXLSP-NQIIRXRSSA-N

>  <SMILES>  (147) 
Cc1ccnc(c1)CCCCCO[C@H]2CNC[C@H]2Cc3cc(cc(n3)N)C

>  <MissingHeavyAtoms>  (147) 
0

>  <Model>  (147) 
1

>  <AltIds>  (147) 


>  <pKI>  (147) 
7.51

>  <ChemblID>  (147) 
-

>  <standardized_canonical_smiles>  (147) 
Cc1ccnc(CCCCCO[C@H]2CNC[C@H]2Cc2cc(C)cc(N)n2)c1

$$$$
3UFV_HW9_B_800
     RDKit          3D

 27 29  0  0  0  0  0  0  0  0999 V2000
   15.3190   10.6810   54.7370 N   0  0  0  0  0  0  0  0  0  0  0  0
   16.5640   10.1450   54.7260 C   0  0  0  0  0  0  0  0  0  0  0  0
   17.6740   10.8170   54.1830 C   0  0  0  0  0  0  0  0  0  0  0  0
   18.9410   10.2050   54.2030 C   0  0  0  0  0  0  0  0  0  0  0  0
   19.0700    8.9350   54.7650 C   0  0  0  0  0  0  0  0  0  0  0  0
   20.1650   10.8720   53.6260 C   0  0  0  0  0  0  0  0  0  0  0  0
   16.7530    8.9210   55.2610 N   0  0  0  0  0  0  0  0  0  0  0  0
   17.9500    8.3130   55.2940 C   0  0  0  0  0  0  0  0  0  0  0  0
   18.0310    6.9430   55.9080 C   0  0  0  0  0  0  0  0  0  0  0  0
   19.2100    6.1630   55.3580 C   0  0  0  0  0  0  0  0  0  0  0  0
   19.2960    4.7440   55.8840 C   0  0  0  0  0  0  0  0  0  0  0  0
   20.2060    4.0550   54.8800 C   0  0  0  0  0  0  0  0  0  0  0  0
   19.9970    4.8090   53.6520 N   0  0  0  0  0  0  0  0  0  0  0  0
   19.2260    6.0290   53.8350 C   0  0  0  0  0  0  0  0  0  0  0  0
   18.0060    4.1260   55.9070 O   0  0  0  0  0  0  0  0  0  0  0  0
   17.8720    3.2180   56.9970 C   0  0  0  0  0  0  0  0  0  0  0  0
   16.4580    3.3700   57.5230 C   0  0  0  0  0  0  0  0  0  0  0  0
   15.9820    2.0250   58.0320 C   0  0  0  0  0  0  0  0  0  0  0  0
   14.4660    1.9740   58.0030 C   0  0  0  0  0  0  0  0  0  0  0  0
   14.1020    0.5550   58.4050 C   0  0  0  0  0  0  0  0  0  0  0  0
   12.6670    0.2800   58.9050 C   0  0  0  0  0  0  0  0  0  0  0  0
   11.9510   -0.7220   58.3270 N   0  0  0  0  0  0  0  0  0  0  0  0
   10.7570   -1.0750   58.7840 C   0  0  0  0  0  0  0  0  0  0  0  0
   10.1840   -0.3950   59.8420 C   0  0  0  0  0  0  0  0  0  0  0  0
   10.8440    0.6480   60.4360 C   0  0  0  0  0  0  0  0  0  0  0  0
   12.1180    0.9800   59.9890 C   0  0  0  0  0  0  0  0  0  0  0  0
   10.1770    1.3540   61.5910 C   0  0  0  0  0  0  0  0  0  0  0  0
  2  1  1  0
  3  2  2  0
  7  2  1  0
  4  3  1  0
  5  4  2  0
  6  4  1  0
  8  5  1  0
  8  7  2  0
  9  8  1  0
 10  9  1  0
 11 10  1  0
 14 10  1  0
 12 11  1  0
 15 11  1  0
 13 12  1  0
 14 13  1  0
 16 15  1  0
 17 16  1  0
 18 17  1  0
 19 18  1  0
 20 19  1  0
 21 20  1  0
 22 21  2  0
 26 21  1  0
 23 22  1  0
 24 23  2  0
 25 24  1  0
 26 25  2  0
 27 25  1  0
A    1
N02
A    2
C02
A    3
C03
A    4
C04
A    5
C05
A    6
C07
A    7
N01
A    8
C06
A    9
C08
A   10
C4'
A   11
C3'
A   12
C2'
A   13
N1'
A   14
C5'
A   15
O09
A   16
C10
A   17
C11
A   18
C12
A   19
C13
A   20
C14
A   21
C26
A   22
N21
A   23
C22
A   24
C23
A   25
C24
A   26
C25
A   27
C27
M  END
>  <Id>  (148) 
3UFV_HW9_B_800

>  <ChainId>  (148) 
B

>  <AsymId>  (148) 
J

>  <SeqNum>  (148) 
800

>  <Name>  (148) 
4-methyl-6-{[(3R,4R)-4-{[5-(4-methylpyridin-2-yl)pentyl]oxy}pyrrolidin-3-yl]methyl}pyridin-2-amine

>  <SystematicName>  (148) 
4-methyl-6-[[(3R,4R)-4-[5-(4-methylpyridin-2-yl)pentoxy]pyrrolidin-3-yl]methyl]pyridin-2-amine

>  <Synonyms>  (148) 


>  <Type>  (148) 
NON-POLYMER

>  <Formula>  (148) 
C22 H32 N4 O

>  <ObservedFormula>  (148) 
C22 N4 O

>  <MolecularWeight>  (148) 
368.516

>  <ModifiedDate>  (148) 
2012-07-06

>  <Parent>  (148) 


>  <OneLetterCode>  (148) 


>  <SubcomponentList>  (148) 


>  <AmbiguousFlag>  (148) 
N

>  <InsertionCode>  (148) 


>  <InstanceId>  (148) 
3UFV_HW9_B_800

>  <ChemCompId>  (148) 
HW9

>  <PdbId>  (148) 
3UFV

>  <ResidueNumber>  (148) 
800

>  <InChI>  (148) 
InChI=1S/C22H32N4O/c1-16-7-8-25-19(10-16)6-4-3-5-9-27-21-15-24-14-18(21)13-20-11-17(2)12-22(23)26-20/h7-8,10-12,18,21,24H,3-6,9,13-15H2,1-2H3,(H2,23,26)/t18-,21+/m1/s1

>  <InChIKey>  (148) 
ZWYPXJQSZOXLSP-NQIIRXRSSA-N

>  <SMILES>  (148) 
Cc1ccnc(c1)CCCCCO[C@H]2CNC[C@H]2Cc3cc(cc(n3)N)C

>  <MissingHeavyAtoms>  (148) 
0

>  <Model>  (148) 
1

>  <AltIds>  (148) 


>  <pKI>  (148) 
7.51

>  <ChemblID>  (148) 
-

>  <standardized_canonical_smiles>  (148) 
Cc1ccnc(CCCCCO[C@H]2CNC[C@H]2Cc2cc(C)cc(N)n2)c1

$$$$
5VUT_9OG_B_803
     RDKit          3D

 24 26  0  0  0  0  0  0  0  0999 V2000
   17.4230    4.6400   56.4490 C   0  0  0  0  0  0  0  0  0  0  0  0
   16.0630    3.1260   57.6720 C   0  0  0  0  0  0  0  0  0  0  0  0
   10.6030    2.3510   61.3360 C   0  0  0  0  0  0  0  0  0  0  0  0
   13.1080    1.0320   58.8070 C   0  0  0  0  0  0  0  0  0  0  0  0
   17.4700    5.9160   55.6180 C   0  0  0  0  0  0  0  0  0  0  0  0
   23.8110    7.4160   53.8690 N   0  0  0  0  0  0  0  0  0  0  0  0
   22.7010    7.1890   54.1290 C   0  0  0  0  0  0  0  0  0  0  0  0
   21.5000    6.8780   54.4820 C   0  0  0  0  0  0  0  0  0  0  0  0
   20.5790    7.8860   54.6820 C   0  0  0  0  0  0  0  0  0  0  0  0
   19.2720    7.5950   55.0500 C   0  0  0  0  0  0  0  0  0  0  0  0
   21.1140    5.5360   54.6450 C   0  0  0  0  0  0  0  0  0  0  0  0
   19.8020    5.2430   55.0160 C   0  0  0  0  0  0  0  0  0  0  0  0
   18.8840    6.2660   55.2140 C   0  0  0  0  0  0  0  0  0  0  0  0
   16.0750    4.4500   57.0300 N   0  0  0  0  0  0  0  0  0  0  0  0
   14.7830    2.7370   58.3870 C   0  0  0  0  0  0  0  0  0  0  0  0
   14.1370    3.5780   59.2920 C   0  0  0  0  0  0  0  0  0  0  0  0
   14.2710    1.4590   58.1640 C   0  0  0  0  0  0  0  0  0  0  0  0
   12.4560    1.8760   59.6970 C   0  0  0  0  0  0  0  0  0  0  0  0
   12.9680    3.1450   59.9230 C   0  0  0  0  0  0  0  0  0  0  0  0
   12.6210   -0.2090   58.5660 N   0  0  0  0  0  0  0  0  0  0  0  0
   11.5050   -0.6640   59.1690 C   0  0  0  0  0  0  0  0  0  0  0  0
   11.0720   -1.9270   58.8720 N   0  0  0  0  0  0  0  0  0  0  0  0
   10.8290    0.1570   60.0860 C   0  0  0  0  0  0  0  0  0  0  0  0
   11.3090    1.4410   60.3540 C   0  0  0  0  0  0  0  0  0  0  0  0
  5  1  1  0
 14  1  1  0
 14  2  1  0
 15  2  1  0
 24  3  1  0
 17  4  2  0
 18  4  1  0
 20  4  1  0
 13  5  1  0
  7  6  3  0
  8  7  1  0
  9  8  2  0
 11  8  1  0
 10  9  1  0
 13 10  2  0
 12 11  2  0
 13 12  1  0
 16 15  2  0
 17 15  1  0
 19 16  1  0
 19 18  2  0
 24 18  1  0
 21 20  2  0
 22 21  1  0
 23 21  1  0
 24 23  2  0
A    1
C14
A    2
C12
A    3
C11
A    4
C10
A    5
C15
A    6
N28
A    7
C27
A    8
C24
A    9
C23
A   10
C22
A   11
C25
A   12
C26
A   13
C21
A   14
N13
A   15
C08
A   16
C07
A   17
C09
A   18
C05
A   19
C06
A   20
N01
A   21
C02
A   22
N02
A   23
C03
A   24
C04
M  END
>  <Id>  (149) 
5VUT_9OG_B_803

>  <ChainId>  (149) 
B

>  <AsymId>  (149) 
J

>  <SeqNum>  (149) 
803

>  <Name>  (149) 
4-(2-{[(2-amino-4-methylquinolin-7-yl)methyl]amino}ethyl)benzonitrile

>  <SystematicName>  (149) 
4-[2-[(2-azanyl-4-methyl-quinolin-7-yl)methylamino]ethyl]benzenecarbonitrile

>  <Synonyms>  (149) 


>  <Type>  (149) 
NON-POLYMER

>  <Formula>  (149) 
C20 H20 N4

>  <ObservedFormula>  (149) 
C20 N4

>  <MolecularWeight>  (149) 
316.4

>  <ModifiedDate>  (149) 
2017-08-11

>  <Parent>  (149) 


>  <OneLetterCode>  (149) 


>  <SubcomponentList>  (149) 


>  <AmbiguousFlag>  (149) 
N

>  <InsertionCode>  (149) 


>  <InstanceId>  (149) 
5VUT_9OG_B_803

>  <ChemCompId>  (149) 
9OG

>  <PdbId>  (149) 
5VUT

>  <ResidueNumber>  (149) 
803

>  <InChI>  (149) 
InChI=1S/C20H20N4/c1-14-10-20(22)24-19-11-17(6-7-18(14)19)13-23-9-8-15-2-4-16(12-21)5-3-15/h2-7,10-11,23H,8-9,13H2,1H3,(H2,22,24)

>  <InChIKey>  (149) 
CNMLPDIDKJDXOA-UHFFFAOYSA-N

>  <SMILES>  (149) 
Cc1cc(nc2c1ccc(c2)CNCCc3ccc(cc3)C#N)N

>  <MissingHeavyAtoms>  (149) 
0

>  <Model>  (149) 
1

>  <AltIds>  (149) 


>  <pKI>  (149) 
7.72

>  <ChemblID>  (149) 
-

>  <standardized_canonical_smiles>  (149) 
Cc1cc(N)nc2cc(CNCCc3ccc(C#N)cc3)ccc12

$$$$
4D7O_0GD_B_800
     RDKit          3D

 25 27  0  0  0  0  0  0  0  0999 V2000
   10.0290    1.7180   62.1480 C   0  0  0  0  0  0  0  0  0  0  0  0
   10.7460    1.1020   60.9500 C   0  0  0  0  0  0  0  0  0  0  0  0
   11.8280    1.8100   60.4120 C   0  0  0  0  0  0  0  0  0  0  0  0
   10.3890   -0.1500   60.4170 C   0  0  0  0  0  0  0  0  0  0  0  0
   11.1190   -0.6200   59.2950 C   0  0  0  0  0  0  0  0  0  0  0  0
   10.8310   -1.8070   58.6860 N   0  0  0  0  0  0  0  0  0  0  0  0
   12.1600    0.0960   58.7870 N   0  0  0  0  0  0  0  0  0  0  0  0
   12.5130    1.3210   59.2920 C   0  0  0  0  0  0  0  0  0  0  0  0
   13.6830    2.1090   58.7790 C   0  0  0  0  0  0  0  0  0  0  0  0
   13.5960    3.4870   58.5740 C   0  0  0  0  0  0  0  0  0  0  0  0
   14.7200    4.2040   58.1610 C   0  0  0  0  0  0  0  0  0  0  0  0
   14.9130    1.4620   58.5510 C   0  0  0  0  0  0  0  0  0  0  0  0
   16.0310    2.1950   58.1160 C   0  0  0  0  0  0  0  0  0  0  0  0
   15.9250    3.5760   57.9220 C   0  0  0  0  0  0  0  0  0  0  0  0
   17.0990    4.3980   57.4490 C   0  0  0  0  0  0  0  0  0  0  0  0
   16.7660    5.0510   56.1590 N   0  0  0  0  0  0  0  0  0  0  0  0
   17.9930    5.5950   55.5330 C   0  0  0  0  0  0  0  0  0  0  0  0
   18.2270    6.9730   56.1460 C   0  0  0  0  0  0  0  0  0  0  0  0
   19.0110    7.8520   55.2020 C   0  0  0  0  0  0  0  0  0  0  0  0
   18.3500    8.8760   54.5530 C   0  0  0  0  0  0  0  0  0  0  0  0
   19.0690    9.6920   53.6830 C   0  0  0  0  0  0  0  0  0  0  0  0
   18.4090   10.6700   53.0440 F   0  0  0  0  0  0  0  0  0  0  0  0
   20.4360    9.5060   53.4770 C   0  0  0  0  0  0  0  0  0  0  0  0
   21.0960    8.4600   54.1290 C   0  0  0  0  0  0  0  0  0  0  0  0
   20.3740    7.6380   54.9940 C   0  0  0  0  0  0  0  0  0  0  0  0
  2  1  1  0
  3  2  2  0
  4  2  1  0
  8  3  1  0
  5  4  2  0
  6  5  1  0
  7  5  1  0
  8  7  2  0
  9  8  1  0
 10  9  2  0
 12  9  1  0
 11 10  1  0
 14 11  2  0
 13 12  2  0
 14 13  1  0
 15 14  1  0
 16 15  1  0
 17 16  1  0
 18 17  1  0
 19 18  1  0
 20 19  2  0
 25 19  1  0
 21 20  1  0
 22 21  1  0
 23 21  2  0
 24 23  1  0
 25 24  2  0
A    1
C08
A    2
C04
A    3
C05
A    4
C03
A    5
C02
A    6
N07
A    7
N01
A    8
C06
A    9
C09
A   10
C10
A   11
C11
A   12
C14
A   13
C13
A   14
C12
A   15
C15
A   16
N16
A   17
C17
A   18
C18
A   19
C19
A   20
C20
A   21
C21
A   22
F25
A   23
C22
A   24
C23
A   25
C24
M  END
>  <Id>  (150) 
4D7O_0GD_B_800

>  <ChainId>  (150) 
B

>  <AsymId>  (150) 
I

>  <SeqNum>  (150) 
800

>  <Name>  (150) 
6-[4-({[2-(3-fluorophenyl)ethyl]amino}methyl)phenyl]-4-methylpyridin-2-amine

>  <SystematicName>  (150) 
6-[4-[[2-(3-fluorophenyl)ethylamino]methyl]phenyl]-4-methyl-pyridin-2-amine

>  <Synonyms>  (150) 


>  <Type>  (150) 
non-polymer

>  <Formula>  (150) 
C21 H22 F N3

>  <ObservedFormula>  (150) 
C21 F N3

>  <MolecularWeight>  (150) 
335.418

>  <ModifiedDate>  (150) 
2015-06-26

>  <Parent>  (150) 


>  <OneLetterCode>  (150) 


>  <SubcomponentList>  (150) 


>  <AmbiguousFlag>  (150) 
N

>  <InsertionCode>  (150) 


>  <InstanceId>  (150) 
4D7O_0GD_B_800

>  <ChemCompId>  (150) 
0GD

>  <PdbId>  (150) 
4D7O

>  <ResidueNumber>  (150) 
800

>  <InChI>  (150) 
InChI=1S/C21H22FN3/c1-15-11-20(25-21(23)12-15)18-7-5-17(6-8-18)14-24-10-9-16-3-2-4-19(22)13-16/h2-8,11-13,24H,9-10,14H2,1H3,(H2,23,25)

>  <InChIKey>  (150) 
YIRCIVHQWVHKOD-UHFFFAOYSA-N

>  <SMILES>  (150) 
Cc1cc(nc(c1)N)c2ccc(cc2)CNCCc3cccc(c3)F

>  <MissingHeavyAtoms>  (150) 
0

>  <Model>  (150) 
1

>  <AltIds>  (150) 


>  <pKI>  (150) 
6.28

>  <ChemblID>  (150) 
-

>  <standardized_canonical_smiles>  (150) 
Cc1cc(N)nc(-c2ccc(CNCCc3cccc(F)c3)cc2)c1

$$$$
3UFR_H5W_B_800
     RDKit          3D

 26 28  0  0  0  0  0  0  0  0999 V2000
   22.0540    8.9250   54.7240 F   0  0  0  0  0  0  0  0  0  0  0  0
   20.7090    8.8410   54.6630 C   0  0  0  0  0  0  0  0  0  0  0  0
   19.9490    9.9820   54.3820 C   0  0  0  0  0  0  0  0  0  0  0  0
   18.5600    9.8830   54.3190 C   0  0  0  0  0  0  0  0  0  0  0  0
   17.9410    8.6510   54.5410 C   0  0  0  0  0  0  0  0  0  0  0  0
   20.0850    7.6070   54.8810 C   0  0  0  0  0  0  0  0  0  0  0  0
   18.6920    7.5080   54.8220 C   0  0  0  0  0  0  0  0  0  0  0  0
   17.9780    6.2210   55.0450 C   0  0  0  0  0  0  0  0  0  0  0  0
   18.5680    5.0570   55.3430 C   0  0  0  0  0  0  0  0  0  0  0  0
   17.9920    4.1840   56.4720 C   0  0  0  0  0  0  0  0  0  0  0  0
   16.5100    4.5120   56.7590 C   0  0  0  0  0  0  0  0  0  0  0  0
   15.8830    3.6770   57.7490 O   0  0  0  0  0  0  0  0  0  0  0  0
   15.7450    2.3230   57.2970 C   0  0  0  0  0  0  0  0  0  0  0  0
   16.9240    1.4940   57.8110 C   0  0  0  0  0  0  0  0  0  0  0  0
   16.3360    0.3020   58.3830 N   0  0  0  0  0  0  0  0  0  0  0  0
   14.9230    0.4690   58.6630 C   0  0  0  0  0  0  0  0  0  0  0  0
   14.4640    1.5470   57.6760 C   0  0  0  0  0  0  0  0  0  0  0  0
   13.1670    2.2980   58.0890 C   0  0  0  0  0  0  0  0  0  0  0  0
   12.1660    1.3540   58.7800 C   0  0  0  0  0  0  0  0  0  0  0  0
   11.8600    0.0960   58.3120 N   0  0  0  0  0  0  0  0  0  0  0  0
   10.9730   -0.7110   58.9580 C   0  0  0  0  0  0  0  0  0  0  0  0
   10.6390   -1.9470   58.5040 N   0  0  0  0  0  0  0  0  0  0  0  0
   10.3650   -0.2890   60.1270 C   0  0  0  0  0  0  0  0  0  0  0  0
   11.5490    1.7870   59.9560 C   0  0  0  0  0  0  0  0  0  0  0  0
   10.6700    0.9580   60.6330 C   0  0  0  0  0  0  0  0  0  0  0  0
   10.0060    1.4040   61.9090 C   0  0  0  0  0  0  0  0  0  0  0  0
  2  1  1  0
  3  2  2  0
  6  2  1  0
  4  3  1  0
  5  4  2  0
  7  5  1  0
  7  6  2  0
  8  7  1  0
  9  8  2  0
 10  9  1  0
 11 10  1  0
 12 11  1  0
 13 12  1  0
 14 13  1  0
 17 13  1  0
 15 14  1  0
 16 15  1  0
 17 16  1  0
 18 17  1  0
 19 18  1  0
 20 19  2  0
 24 19  1  0
 21 20  1  0
 22 21  1  0
 23 21  2  0
 25 23  1  0
 25 24  2  0
 26 25  1  0
A    1
F23
A    2
C23
A    3
C24
A    4
C25
A    5
C26
A    6
C22
A    7
C21
A    8
C13
A    9
C12
A   10
C11
A   11
C10
A   12
O09
A   13
C3'
A   14
C2'
A   15
N1'
A   16
C5'
A   17
C4'
A   18
C08
A   19
C06
A   20
N01
A   21
C02
A   22
N02
A   23
C03
A   24
C05
A   25
C04
A   26
C07
M  END
>  <Id>  (151) 
3UFR_H5W_B_800

>  <ChainId>  (151) 
B

>  <AsymId>  (151) 
J

>  <SeqNum>  (151) 
800

>  <Name>  (151) 
6-{[(3R,4R)-4-{[(3E)-4-(3-fluorophenyl)but-3-en-1-yl]oxy}pyrrolidin-3-yl]methyl}-4-methylpyridin-2-amine

>  <SystematicName>  (151) 
6-[[(3R,4R)-4-[(E)-4-(3-fluorophenyl)but-3-enoxy]pyrrolidin-3-yl]methyl]-4-methyl-pyridin-2-amine

>  <Synonyms>  (151) 


>  <Type>  (151) 
NON-POLYMER

>  <Formula>  (151) 
C21 H26 F N3 O

>  <ObservedFormula>  (151) 
C21 F N3 O

>  <MolecularWeight>  (151) 
355.449

>  <ModifiedDate>  (151) 
2012-07-06

>  <Parent>  (151) 


>  <OneLetterCode>  (151) 


>  <SubcomponentList>  (151) 


>  <AmbiguousFlag>  (151) 
N

>  <InsertionCode>  (151) 


>  <InstanceId>  (151) 
3UFR_H5W_B_800

>  <ChemCompId>  (151) 
H5W

>  <PdbId>  (151) 
3UFR

>  <ResidueNumber>  (151) 
800

>  <InChI>  (151) 
InChI=1S/C21H26FN3O/c1-15-9-19(25-21(23)10-15)12-17-13-24-14-20(17)26-8-3-2-5-16-6-4-7-18(22)11-16/h2,4-7,9-11,17,20,24H,3,8,12-14H2,1H3,(H2,23,25)/b5-2+/t17-,20+/m1/s1

>  <InChIKey>  (151) 
GKGVFZUGOXZFKN-YUOLOVIMSA-N

>  <SMILES>  (151) 
Cc1cc(nc(c1)N)C[C@@H]2CNC[C@@H]2OCC/C=C/c3cccc(c3)F

>  <MissingHeavyAtoms>  (151) 
0

>  <Model>  (151) 
1

>  <AltIds>  (151) 


>  <pKI>  (151) 
6.2

>  <ChemblID>  (151) 
-

>  <standardized_canonical_smiles>  (151) 
Cc1cc(N)nc(C[C@@H]2CNC[C@@H]2OCC/C=C/c2cccc(F)c2)c1

$$$$
3UFP_H4W_B_800
     RDKit          3D

 27 29  0  0  0  0  0  0  0  0999 V2000
   15.9250   10.4530   55.0270 F   0  0  0  0  0  0  0  0  0  0  0  0
   17.2220   10.0740   54.8420 C   0  0  0  0  0  0  0  0  0  0  0  0
   17.5940    8.7250   54.9340 C   0  0  0  0  0  0  0  0  0  0  0  0
   18.9310    8.3130   54.7510 C   0  0  0  0  0  0  0  0  0  0  0  0
   19.9270    9.2750   54.4800 C   0  0  0  0  0  0  0  0  0  0  0  0
   19.5730   10.6270   54.3870 C   0  0  0  0  0  0  0  0  0  0  0  0
   18.2320   11.0140   54.5670 C   0  0  0  0  0  0  0  0  0  0  0  0
   19.3170    6.8410   54.8440 C   0  0  0  0  0  0  0  0  0  0  0  0
   18.1480    5.9820   55.3150 C   0  0  0  0  0  0  0  0  0  0  0  0
   18.4210    4.4850   55.1550 C   0  0  0  0  0  0  0  0  0  0  0  0
   18.0730    3.6900   56.4180 C   0  0  0  0  0  0  0  0  0  0  0  0
   17.1630    4.4290   57.4250 C   0  0  0  0  0  0  0  0  0  0  0  0
   15.9020    3.7890   57.7400 O   0  0  0  0  0  0  0  0  0  0  0  0
   15.9370    2.3700   57.5310 C   0  0  0  0  0  0  0  0  0  0  0  0
   17.0520    1.6960   58.3430 C   0  0  0  0  0  0  0  0  0  0  0  0
   16.4680    0.4230   58.7300 N   0  0  0  0  0  0  0  0  0  0  0  0
   15.0250    0.5130   58.8590 C   0  0  0  0  0  0  0  0  0  0  0  0
   14.6530    1.5700   57.8180 C   0  0  0  0  0  0  0  0  0  0  0  0
   13.3380    2.3170   58.1210 C   0  0  0  0  0  0  0  0  0  0  0  0
   12.3880    1.3640   58.8400 C   0  0  0  0  0  0  0  0  0  0  0  0
   12.0870    0.1070   58.3790 N   0  0  0  0  0  0  0  0  0  0  0  0
   11.2210   -0.7140   59.0470 C   0  0  0  0  0  0  0  0  0  0  0  0
   10.9240   -1.9400   58.5510 N   0  0  0  0  0  0  0  0  0  0  0  0
   10.6530   -0.2940   60.2580 C   0  0  0  0  0  0  0  0  0  0  0  0
   10.9820    0.9710   60.7460 C   0  0  0  0  0  0  0  0  0  0  0  0
   10.4380    1.4960   62.0310 C   0  0  0  0  0  0  0  0  0  0  0  0
   11.8260    1.7930   60.0290 C   0  0  0  0  0  0  0  0  0  0  0  0
  2  1  1  0
  3  2  2  0
  7  2  1  0
  4  3  1  0
  5  4  2  0
  8  4  1  0
  6  5  1  0
  7  6  2  0
  9  8  1  0
 10  9  1  0
 11 10  1  0
 12 11  1  0
 13 12  1  0
 14 13  1  0
 15 14  1  0
 18 14  1  0
 16 15  1  0
 17 16  1  0
 18 17  1  0
 19 18  1  0
 20 19  1  0
 21 20  2  0
 27 20  1  0
 22 21  1  0
 23 22  1  0
 24 22  2  0
 25 24  1  0
 26 25  1  0
 27 25  2  0
A    1
F23
A    2
C23
A    3
C22
A    4
C21
A    5
C26
A    6
C25
A    7
C24
A    8
C14
A    9
C13
A   10
C12
A   11
C11
A   12
C10
A   13
O09
A   14
C3'
A   15
C2'
A   16
N1'
A   17
C5'
A   18
C4'
A   19
C08
A   20
C06
A   21
N01
A   22
C02
A   23
N02
A   24
C03
A   25
C04
A   26
C07
A   27
C05
M  END
>  <Id>  (152) 
3UFP_H4W_B_800

>  <ChainId>  (152) 
B

>  <AsymId>  (152) 
J

>  <SeqNum>  (152) 
800

>  <Name>  (152) 
6-{[(3R,4R)-4-{[5-(3-fluorophenyl)pentyl]oxy}pyrrolidin-3-yl]methyl}-4-methylpyridin-2-amine

>  <SystematicName>  (152) 
6-[[(3R,4R)-4-[5-(3-fluorophenyl)pentoxy]pyrrolidin-3-yl]methyl]-4-methyl-pyridin-2-amine

>  <Synonyms>  (152) 


>  <Type>  (152) 
NON-POLYMER

>  <Formula>  (152) 
C22 H30 F N3 O

>  <ObservedFormula>  (152) 
C22 F N3 O

>  <MolecularWeight>  (152) 
371.492

>  <ModifiedDate>  (152) 
2012-07-06

>  <Parent>  (152) 


>  <OneLetterCode>  (152) 


>  <SubcomponentList>  (152) 


>  <AmbiguousFlag>  (152) 
N

>  <InsertionCode>  (152) 


>  <InstanceId>  (152) 
3UFP_H4W_B_800

>  <ChemCompId>  (152) 
H4W

>  <PdbId>  (152) 
3UFP

>  <ResidueNumber>  (152) 
800

>  <InChI>  (152) 
InChI=1S/C22H30FN3O/c1-16-10-20(26-22(24)11-16)13-18-14-25-15-21(18)27-9-4-2-3-6-17-7-5-8-19(23)12-17/h5,7-8,10-12,18,21,25H,2-4,6,9,13-15H2,1H3,(H2,24,26)/t18-,21+/m1/s1

>  <InChIKey>  (152) 
AQTALODLFZOZJL-NQIIRXRSSA-N

>  <SMILES>  (152) 
Cc1cc(nc(c1)N)C[C@@H]2CNC[C@@H]2OCCCCCc3cccc(c3)F

>  <MissingHeavyAtoms>  (152) 
0

>  <Model>  (152) 
1

>  <AltIds>  (152) 


>  <pKI>  (152) 
6.04

>  <ChemblID>  (152) 
-

>  <standardized_canonical_smiles>  (152) 
Cc1cc(N)nc(C[C@@H]2CNC[C@@H]2OCCCCCc2cccc(F)c2)c1

$$$$
3UFO_HW4_B_800
     RDKit          3D

 27 29  0  0  0  0  0  0  0  0999 V2000
   24.4830    7.9090   58.7950 F   0  0  0  0  0  0  0  0  0  0  0  0
   23.1950    7.6310   58.5330 C   0  0  0  0  0  0  0  0  0  0  0  0
   22.2140    8.5390   58.9120 C   0  0  0  0  0  0  0  0  0  0  0  0
   20.8790    8.2550   58.6470 C   0  0  0  0  0  0  0  0  0  0  0  0
   20.5270    7.0710   58.0100 C   0  0  0  0  0  0  0  0  0  0  0  0
   22.8480    6.4410   57.8870 C   0  0  0  0  0  0  0  0  0  0  0  0
   21.5080    6.1570   57.6180 C   0  0  0  0  0  0  0  0  0  0  0  0
   21.1290    4.8610   56.9200 C   0  0  0  0  0  0  0  0  0  0  0  0
   20.1720    5.0810   55.7430 C   0  0  0  0  0  0  0  0  0  0  0  0
   18.7690    5.5070   56.2010 C   0  0  0  0  0  0  0  0  0  0  0  0
   17.7600    4.3480   56.2150 C   0  0  0  0  0  0  0  0  0  0  0  0
   16.6030    4.5770   57.2100 C   0  0  0  0  0  0  0  0  0  0  0  0
   15.7360    3.4450   57.2720 O   0  0  0  0  0  0  0  0  0  0  0  0
   16.1250    2.3640   58.1470 C   0  0  0  0  0  0  0  0  0  0  0  0
   17.0290    1.3560   57.4240 C   0  0  0  0  0  0  0  0  0  0  0  0
   16.3890    0.0530   57.4610 N   0  0  0  0  0  0  0  0  0  0  0  0
   15.2910    0.0490   58.4010 C   0  0  0  0  0  0  0  0  0  0  0  0
   14.9420    1.5250   58.6910 C   0  0  0  0  0  0  0  0  0  0  0  0
   13.5370    1.9000   58.1770 C   0  0  0  0  0  0  0  0  0  0  0  0
   12.4150    1.1870   58.9310 C   0  0  0  0  0  0  0  0  0  0  0  0
   11.9680   -0.0540   58.5630 N   0  0  0  0  0  0  0  0  0  0  0  0
   10.9750   -0.6890   59.2230 C   0  0  0  0  0  0  0  0  0  0  0  0
   10.5780   -1.9250   58.7730 N   0  0  0  0  0  0  0  0  0  0  0  0
   10.3980   -0.1050   60.3590 C   0  0  0  0  0  0  0  0  0  0  0  0
   10.8650    1.1460   60.7740 C   0  0  0  0  0  0  0  0  0  0  0  0
   11.8440    1.8030   60.0510 C   0  0  0  0  0  0  0  0  0  0  0  0
   10.2940    1.8500   61.9720 C   0  0  0  0  0  0  0  0  0  0  0  0
  2  1  1  0
  3  2  2  0
  6  2  1  0
  4  3  1  0
  5  4  2  0
  7  5  1  0
  7  6  2  0
  8  7  1  0
  9  8  1  0
 10  9  1  0
 11 10  1  0
 12 11  1  0
 13 12  1  0
 14 13  1  0
 15 14  1  0
 18 14  1  0
 16 15  1  0
 17 16  1  0
 18 17  1  0
 19 18  1  0
 20 19  1  0
 21 20  2  0
 26 20  1  0
 22 21  1  0
 23 22  1  0
 24 22  2  0
 25 24  1  0
 26 25  2  0
 27 25  1  0
A    1
F23
A    2
C23
A    3
C24
A    4
C25
A    5
C26
A    6
C22
A    7
C21
A    8
C14
A    9
C13
A   10
C12
A   11
C11
A   12
C10
A   13
O09
A   14
C3'
A   15
C2'
A   16
N1'
A   17
C5'
A   18
C4'
A   19
C08
A   20
C06
A   21
N01
A   22
C02
A   23
N02
A   24
C03
A   25
C04
A   26
C05
A   27
C07
M  END
>  <Id>  (153) 
3UFO_HW4_B_800

>  <ChainId>  (153) 
B

>  <AsymId>  (153) 
J

>  <SeqNum>  (153) 
800

>  <Name>  (153) 
6-{[(3S,4S)-4-{[5-(3-fluorophenyl)pentyl]oxy}pyrrolidin-3-yl]methyl}-4-methylpyridin-2-amine

>  <SystematicName>  (153) 
6-[[(3S,4S)-4-[5-(3-fluorophenyl)pentoxy]pyrrolidin-3-yl]methyl]-4-methyl-pyridin-2-amine

>  <Synonyms>  (153) 


>  <Type>  (153) 
NON-POLYMER

>  <Formula>  (153) 
C22 H30 F N3 O

>  <ObservedFormula>  (153) 
C22 F N3 O

>  <MolecularWeight>  (153) 
371.492

>  <ModifiedDate>  (153) 
2012-07-06

>  <Parent>  (153) 


>  <OneLetterCode>  (153) 


>  <SubcomponentList>  (153) 


>  <AmbiguousFlag>  (153) 
N

>  <InsertionCode>  (153) 


>  <InstanceId>  (153) 
3UFO_HW4_B_800

>  <ChemCompId>  (153) 
HW4

>  <PdbId>  (153) 
3UFO

>  <ResidueNumber>  (153) 
800

>  <InChI>  (153) 
InChI=1S/C22H30FN3O/c1-16-10-20(26-22(24)11-16)13-18-14-25-15-21(18)27-9-4-2-3-6-17-7-5-8-19(23)12-17/h5,7-8,10-12,18,21,25H,2-4,6,9,13-15H2,1H3,(H2,24,26)/t18-,21+/m0/s1

>  <InChIKey>  (153) 
AQTALODLFZOZJL-GHTZIAJQSA-N

>  <SMILES>  (153) 
Cc1cc(nc(c1)N)C[C@H]2CNC[C@H]2OCCCCCc3cccc(c3)F

>  <MissingHeavyAtoms>  (153) 
0

>  <Model>  (153) 
1

>  <AltIds>  (153) 


>  <pKI>  (153) 
5.04

>  <ChemblID>  (153) 
-

>  <standardized_canonical_smiles>  (153) 
Cc1cc(N)nc(C[C@H]2CNC[C@H]2OCCCCCc2cccc(F)c2)c1

$$$$
3UFQ_HW5_B_800
     RDKit          3D

 27 29  0  0  0  0  0  0  0  0999 V2000
   23.8570    6.8190   53.8680 F   0  0  0  0  0  0  0  0  0  0  0  0
   22.5740    7.1830   54.0660 C   0  0  0  0  0  0  0  0  0  0  0  0
   21.6360    6.2170   54.4340 C   0  0  0  0  0  0  0  0  0  0  0  0
   20.3010    6.5960   54.6370 C   0  0  0  0  0  0  0  0  0  0  0  0
   19.9000    7.9370   54.4730 C   0  0  0  0  0  0  0  0  0  0  0  0
   20.8380    8.9080   54.1070 C   0  0  0  0  0  0  0  0  0  0  0  0
   22.1720    8.5210   53.9060 C   0  0  0  0  0  0  0  0  0  0  0  0
   19.3240    5.5530   55.0240 C   0  0  0  0  0  0  0  0  0  0  0  0
   18.0510    5.8750   55.2400 C   0  0  0  0  0  0  0  0  0  0  0  0
   17.6330    6.1550   56.6720 C   0  0  0  0  0  0  0  0  0  0  0  0
   16.5390    5.1900   57.1390 C   0  0  0  0  0  0  0  0  0  0  0  0
   17.1400    3.8830   57.6280 C   0  0  0  0  0  0  0  0  0  0  0  0
   16.1620    2.8980   57.3600 O   0  0  0  0  0  0  0  0  0  0  0  0
   16.4810    1.6610   58.0030 C   0  0  0  0  0  0  0  0  0  0  0  0
   15.2480    1.0560   58.6890 C   0  0  0  0  0  0  0  0  0  0  0  0
   15.4280   -0.4570   58.5100 C   0  0  0  0  0  0  0  0  0  0  0  0
   16.4000   -0.6190   57.4260 N   0  0  0  0  0  0  0  0  0  0  0  0
   17.0200    0.6160   57.0020 C   0  0  0  0  0  0  0  0  0  0  0  0
   13.8930    1.5630   58.1490 C   0  0  0  0  0  0  0  0  0  0  0  0
   12.6960    0.9150   58.8480 C   0  0  0  0  0  0  0  0  0  0  0  0
   12.0910    1.5510   59.9350 C   0  0  0  0  0  0  0  0  0  0  0  0
   11.0070    0.9540   60.5720 C   0  0  0  0  0  0  0  0  0  0  0  0
   10.3820    1.6400   61.7540 C   0  0  0  0  0  0  0  0  0  0  0  0
   10.5260   -0.2790   60.1200 C   0  0  0  0  0  0  0  0  0  0  0  0
   11.1500   -0.8830   59.0190 C   0  0  0  0  0  0  0  0  0  0  0  0
   12.1970   -0.2770   58.4130 N   0  0  0  0  0  0  0  0  0  0  0  0
   10.7100   -2.0830   58.5380 N   0  0  0  0  0  0  0  0  0  0  0  0
  2  1  1  0
  3  2  2  0
  7  2  1  0
  4  3  1  0
  5  4  2  0
  8  4  1  0
  6  5  1  0
  7  6  2  0
  9  8  2  0
 10  9  1  0
 11 10  1  0
 12 11  1  0
 13 12  1  0
 14 13  1  0
 15 14  1  0
 18 14  1  0
 16 15  1  0
 19 15  1  0
 17 16  1  0
 18 17  1  0
 20 19  1  0
 21 20  2  0
 26 20  1  0
 22 21  1  0
 23 22  1  0
 24 22  2  0
 25 24  1  0
 26 25  2  0
 27 25  1  0
A    1
F23
A    2
C23
A    3
C22
A    4
C21
A    5
C26
A    6
C25
A    7
C24
A    8
C14
A    9
C13
A   10
C12
A   11
C11
A   12
C10
A   13
O09
A   14
C3'
A   15
C4'
A   16
C5'
A   17
N1'
A   18
C2'
A   19
C08
A   20
C06
A   21
C05
A   22
C04
A   23
C07
A   24
C03
A   25
C02
A   26
N01
A   27
N02
M  END
>  <Id>  (154) 
3UFQ_HW5_B_800

>  <ChainId>  (154) 
B

>  <AsymId>  (154) 
K

>  <SeqNum>  (154) 
800

>  <Name>  (154) 
6-{[(3S,4S)-4-{[(4E)-5-(3-fluorophenyl)pent-4-en-1-yl]oxy}pyrrolidin-3-yl]methyl}-4-methylpyridin-2-amine

>  <SystematicName>  (154) 
6-[[(3S,4S)-4-[5-(3-fluorophenyl)pent-4-enoxy]pyrrolidin-3-yl]methyl]-4-methyl-pyridin-2-amine

>  <Synonyms>  (154) 


>  <Type>  (154) 
NON-POLYMER

>  <Formula>  (154) 
C22 H28 F N3 O

>  <ObservedFormula>  (154) 
C22 F N3 O

>  <MolecularWeight>  (154) 
369.476

>  <ModifiedDate>  (154) 
2012-07-06

>  <Parent>  (154) 


>  <OneLetterCode>  (154) 


>  <SubcomponentList>  (154) 


>  <AmbiguousFlag>  (154) 
N

>  <InsertionCode>  (154) 


>  <InstanceId>  (154) 
3UFQ_HW5_B_800

>  <ChemCompId>  (154) 
HW5

>  <PdbId>  (154) 
3UFQ

>  <ResidueNumber>  (154) 
800

>  <InChI>  (154) 
InChI=1S/C22H28FN3O/c1-16-10-20(26-22(24)11-16)13-18-14-25-15-21(18)27-9-4-2-3-6-17-7-5-8-19(23)12-17/h3,5-8,10-12,18,21,25H,2,4,9,13-15H2,1H3,(H2,24,26)/b6-3+/t18-,21+/m0/s1

>  <InChIKey>  (154) 
GPCIKCOFIVHWEN-KAMCARKFSA-N

>  <SMILES>  (154) 
Cc1cc(nc(c1)N)C[C@H]2CNC[C@H]2OCCCC=Cc3cccc(c3)F

>  <MissingHeavyAtoms>  (154) 
0

>  <Model>  (154) 
1

>  <AltIds>  (154) 


>  <pKI>  (154) 
4.81

>  <ChemblID>  (154) 
-

>  <standardized_canonical_smiles>  (154) 
Cc1cc(N)nc(C[C@H]2CNC[C@H]2OCCC/C=C/c2cccc(F)c2)c1

$$$$
4CX3_HW8_B_800
     RDKit          3D

 26 28  0  0  0  0  0  0  0  0999 V2000
   15.7360   10.4300   54.8650 N   0  0  0  0  0  0  0  0  0  0  0  0
   16.9810    9.8800   54.9510 C   0  0  0  0  0  0  0  0  0  0  0  0
   18.1540   10.5410   54.5500 C   0  0  0  0  0  0  0  0  0  0  0  0
   19.3980    9.8980   54.6840 C   0  0  0  0  0  0  0  0  0  0  0  0
   20.6800   10.5750   54.2570 C   0  0  0  0  0  0  0  0  0  0  0  0
   19.4570    8.5990   55.2060 C   0  0  0  0  0  0  0  0  0  0  0  0
   18.2600    7.9770   55.5920 C   0  0  0  0  0  0  0  0  0  0  0  0
   17.0940    8.6250   55.4540 N   0  0  0  0  0  0  0  0  0  0  0  0
   18.1860    6.5780   56.1770 C   0  0  0  0  0  0  0  0  0  0  0  0
   19.2900    5.7100   55.6180 C   0  0  0  0  0  0  0  0  0  0  0  0
   19.2450    5.6710   54.1020 C   0  0  0  0  0  0  0  0  0  0  0  0
   19.9170    4.4200   53.8000 N   0  0  0  0  0  0  0  0  0  0  0  0
   19.2870    4.2580   56.0590 C   0  0  0  0  0  0  0  0  0  0  0  0
   20.0610    3.5550   54.9510 C   0  0  0  0  0  0  0  0  0  0  0  0
   17.9720    3.6980   56.1890 O   0  0  0  0  0  0  0  0  0  0  0  0
   17.7830    3.2060   57.5130 C   0  0  0  0  0  0  0  0  0  0  0  0
   16.7720    2.0680   57.6050 C   0  0  0  0  0  0  0  0  0  0  0  0
   15.3130    2.5190   57.6390 C   0  0  0  0  0  0  0  0  0  0  0  0
   14.4740    1.4590   58.3640 C   0  0  0  0  0  0  0  0  0  0  0  0
   12.9930    1.8560   58.1820 C   0  0  0  0  0  0  0  0  0  0  0  0
   12.0480    0.8560   58.8160 C   0  0  0  0  0  0  0  0  0  0  0  0
   11.8860   -0.3850   58.2790 N   0  0  0  0  0  0  0  0  0  0  0  0
   11.0140   -1.2540   58.8140 C   0  0  0  0  0  0  0  0  0  0  0  0
   10.2880   -0.9010   59.9690 C   0  0  0  0  0  0  0  0  0  0  0  0
   10.4500    0.3460   60.5480 C   0  0  0  0  0  0  0  0  0  0  0  0
   11.3290    1.2370   59.9550 C   0  0  0  0  0  0  0  0  0  0  0  0
  2  1  1  0
  3  2  2  0
  8  2  1  0
  4  3  1  0
  5  4  1  0
  6  4  2  0
  7  6  1  0
  8  7  2  0
  9  7  1  0
 10  9  1  0
 11 10  1  0
 13 10  1  0
 12 11  1  0
 14 12  1  0
 14 13  1  0
 15 13  1  0
 16 15  1  0
 17 16  1  0
 18 17  1  0
 19 18  1  0
 20 19  1  0
 21 20  1  0
 22 21  2  0
 26 21  1  0
 23 22  1  0
 24 23  2  0
 25 24  1  0
 26 25  2  0
A    1
N02
A    2
C02
A    3
C03
A    4
C04
A    5
C07
A    6
C05
A    7
C06
A    8
N01
A    9
C08
A   10
C4'
A   11
C5'
A   12
N1'
A   13
C3'
A   14
C2'
A   15
O09
A   16
C10
A   17
C11
A   18
C12
A   19
C13
A   20
C14
A   21
C26
A   22
N21
A   23
C22
A   24
C23
A   25
C24
A   26
C25
M  END
>  <Id>  (155) 
4CX3_HW8_B_800

>  <ChainId>  (155) 
B

>  <AsymId>  (155) 
J

>  <SeqNum>  (155) 
800

>  <Name>  (155) 
4-methyl-6-{[(3R,4R)-4-{[5-(pyridin-2-yl)pentyl]oxy}pyrrolidin-3-yl]methyl}pyridin-2-amine

>  <SystematicName>  (155) 
4-methyl-6-[[(3R,4R)-4-(5-pyridin-2-ylpentoxy)pyrrolidin-3-yl]methyl]pyridin-2-amine

>  <Synonyms>  (155) 


>  <Type>  (155) 
NON-POLYMER

>  <Formula>  (155) 
C21 H30 N4 O

>  <ObservedFormula>  (155) 
C21 N4 O

>  <MolecularWeight>  (155) 
354.489

>  <ModifiedDate>  (155) 
2012-07-06

>  <Parent>  (155) 


>  <OneLetterCode>  (155) 


>  <SubcomponentList>  (155) 


>  <AmbiguousFlag>  (155) 
N

>  <InsertionCode>  (155) 


>  <InstanceId>  (155) 
4CX3_HW8_B_800

>  <ChemCompId>  (155) 
HW8

>  <PdbId>  (155) 
4CX3

>  <ResidueNumber>  (155) 
800

>  <InChI>  (155) 
InChI=1S/C21H30N4O/c1-16-11-19(25-21(22)12-16)13-17-14-23-15-20(17)26-10-6-2-3-7-18-8-4-5-9-24-18/h4-5,8-9,11-12,17,20,23H,2-3,6-7,10,13-15H2,1H3,(H2,22,25)/t17-,20+/m1/s1

>  <InChIKey>  (155) 
CSFKTRORRCGDRY-XLIONFOSSA-N

>  <SMILES>  (155) 
Cc1cc(nc(c1)N)C[C@@H]2CNC[C@@H]2OCCCCCc3ccccn3

>  <MissingHeavyAtoms>  (155) 
0

>  <Model>  (155) 
1

>  <AltIds>  (155) 


>  <pKI>  (155) 
7.13

>  <ChemblID>  (155) 
-

>  <standardized_canonical_smiles>  (155) 
Cc1cc(N)nc(C[C@@H]2CNC[C@@H]2OCCCCCc2ccccn2)c1

$$$$
3UFU_HW8_B_800
     RDKit          3D

 26 28  0  0  0  0  0  0  0  0999 V2000
   15.7500   10.3380   54.7970 N   0  0  0  0  0  0  0  0  0  0  0  0
   16.9810    9.7580   54.7760 C   0  0  0  0  0  0  0  0  0  0  0  0
   18.0610   10.4180   54.1630 C   0  0  0  0  0  0  0  0  0  0  0  0
   19.3180    9.7990   54.1490 C   0  0  0  0  0  0  0  0  0  0  0  0
   20.5100   10.4900   53.4990 C   0  0  0  0  0  0  0  0  0  0  0  0
   19.4770    8.5300   54.7310 C   0  0  0  0  0  0  0  0  0  0  0  0
   18.3850    7.8900   55.3030 C   0  0  0  0  0  0  0  0  0  0  0  0
   17.1830    8.5220   55.3250 N   0  0  0  0  0  0  0  0  0  0  0  0
   18.5300    6.5190   55.9420 C   0  0  0  0  0  0  0  0  0  0  0  0
   18.6360    5.4220   54.8870 C   0  0  0  0  0  0  0  0  0  0  0  0
   17.3600    5.2360   54.0420 C   0  0  0  0  0  0  0  0  0  0  0  0
   17.4300    3.8550   53.5490 N   0  0  0  0  0  0  0  0  0  0  0  0
   18.8120    4.0260   55.4360 C   0  0  0  0  0  0  0  0  0  0  0  0
   18.4830    3.1200   54.2240 C   0  0  0  0  0  0  0  0  0  0  0  0
   17.8120    3.8430   56.4520 O   0  0  0  0  0  0  0  0  0  0  0  0
   17.9110    2.6100   57.1640 C   0  0  0  0  0  0  0  0  0  0  0  0
   16.7800    2.5060   58.1980 C   0  0  0  0  0  0  0  0  0  0  0  0
   15.3750    2.4590   57.5990 C   0  0  0  0  0  0  0  0  0  0  0  0
   14.4930    1.4580   58.3530 C   0  0  0  0  0  0  0  0  0  0  0  0
   13.0150    1.7850   58.0710 C   0  0  0  0  0  0  0  0  0  0  0  0
   12.0730    0.8090   58.7590 C   0  0  0  0  0  0  0  0  0  0  0  0
   11.9090   -0.4510   58.2800 N   0  0  0  0  0  0  0  0  0  0  0  0
   11.0510   -1.2990   58.8460 C   0  0  0  0  0  0  0  0  0  0  0  0
   10.3290   -0.9430   59.9880 C   0  0  0  0  0  0  0  0  0  0  0  0
   10.4880    0.3270   60.5160 C   0  0  0  0  0  0  0  0  0  0  0  0
   11.3540    1.2100   59.8990 C   0  0  0  0  0  0  0  0  0  0  0  0
  2  1  1  0
  3  2  2  0
  8  2  1  0
  4  3  1  0
  5  4  1  0
  6  4  2  0
  7  6  1  0
  8  7  2  0
  9  7  1  0
 10  9  1  0
 11 10  1  0
 13 10  1  0
 12 11  1  0
 14 12  1  0
 14 13  1  0
 15 13  1  0
 16 15  1  0
 17 16  1  0
 18 17  1  0
 19 18  1  0
 20 19  1  0
 21 20  1  0
 22 21  2  0
 26 21  1  0
 23 22  1  0
 24 23  2  0
 25 24  1  0
 26 25  2  0
A    1
N02
A    2
C02
A    3
C03
A    4
C04
A    5
C07
A    6
C05
A    7
C06
A    8
N01
A    9
C08
A   10
C4'
A   11
C5'
A   12
N1'
A   13
C3'
A   14
C2'
A   15
O09
A   16
C10
A   17
C11
A   18
C12
A   19
C13
A   20
C14
A   21
C26
A   22
N21
A   23
C22
A   24
C23
A   25
C24
A   26
C25
M  END
>  <Id>  (156) 
3UFU_HW8_B_800

>  <ChainId>  (156) 
B

>  <AsymId>  (156) 
K

>  <SeqNum>  (156) 
800

>  <Name>  (156) 
4-methyl-6-{[(3R,4R)-4-{[5-(pyridin-2-yl)pentyl]oxy}pyrrolidin-3-yl]methyl}pyridin-2-amine

>  <SystematicName>  (156) 
4-methyl-6-[[(3R,4R)-4-(5-pyridin-2-ylpentoxy)pyrrolidin-3-yl]methyl]pyridin-2-amine

>  <Synonyms>  (156) 


>  <Type>  (156) 
NON-POLYMER

>  <Formula>  (156) 
C21 H30 N4 O

>  <ObservedFormula>  (156) 
C21 N4 O

>  <MolecularWeight>  (156) 
354.489

>  <ModifiedDate>  (156) 
2012-07-06

>  <Parent>  (156) 


>  <OneLetterCode>  (156) 


>  <SubcomponentList>  (156) 


>  <AmbiguousFlag>  (156) 
N

>  <InsertionCode>  (156) 


>  <InstanceId>  (156) 
3UFU_HW8_B_800

>  <ChemCompId>  (156) 
HW8

>  <PdbId>  (156) 
3UFU

>  <ResidueNumber>  (156) 
800

>  <InChI>  (156) 
InChI=1S/C21H30N4O/c1-16-11-19(25-21(22)12-16)13-17-14-23-15-20(17)26-10-6-2-3-7-18-8-4-5-9-24-18/h4-5,8-9,11-12,17,20,23H,2-3,6-7,10,13-15H2,1H3,(H2,22,25)/t17-,20+/m1/s1

>  <InChIKey>  (156) 
CSFKTRORRCGDRY-XLIONFOSSA-N

>  <SMILES>  (156) 
Cc1cc(nc(c1)N)C[C@@H]2CNC[C@@H]2OCCCCCc3ccccn3

>  <MissingHeavyAtoms>  (156) 
0

>  <Model>  (156) 
1

>  <AltIds>  (156) 


>  <pKI>  (156) 
7.13

>  <ChemblID>  (156) 
-

>  <standardized_canonical_smiles>  (156) 
Cc1cc(N)nc(C[C@@H]2CNC[C@@H]2OCCCCCc2ccccn2)c1

$$$$
4CX5_HW8_B_800
     RDKit          3D

 26 28  0  0  0  0  0  0  0  0999 V2000
   15.8110   10.2170   54.6730 N   0  0  0  0  0  0  0  0  0  0  0  0
   17.0560    9.6530   54.5950 C   0  0  0  0  0  0  0  0  0  0  0  0
   18.1210   10.2810   53.8950 C   0  0  0  0  0  0  0  0  0  0  0  0
   19.3760    9.6410   53.8430 C   0  0  0  0  0  0  0  0  0  0  0  0
   20.5550   10.2740   53.1250 C   0  0  0  0  0  0  0  0  0  0  0  0
   19.5490    8.3960   54.4640 C   0  0  0  0  0  0  0  0  0  0  0  0
   18.4710    7.7980   55.1260 C   0  0  0  0  0  0  0  0  0  0  0  0
   17.2680    8.4340   55.1620 N   0  0  0  0  0  0  0  0  0  0  0  0
   18.6260    6.4540   55.8000 C   0  0  0  0  0  0  0  0  0  0  0  0
   18.7840    5.3280   54.7810 C   0  0  0  0  0  0  0  0  0  0  0  0
   17.5480    5.0800   53.8910 C   0  0  0  0  0  0  0  0  0  0  0  0
   17.7160    3.6880   53.4570 N   0  0  0  0  0  0  0  0  0  0  0  0
   19.0180    3.9550   55.3670 C   0  0  0  0  0  0  0  0  0  0  0  0
   18.8610    3.0740   54.1210 C   0  0  0  0  0  0  0  0  0  0  0  0
   17.9180    3.6650   56.2460 O   0  0  0  0  0  0  0  0  0  0  0  0
   18.0430    2.4610   57.0030 C   0  0  0  0  0  0  0  0  0  0  0  0
   16.9530    2.4360   58.0830 C   0  0  0  0  0  0  0  0  0  0  0  0
   15.5780    2.1660   57.4840 C   0  0  0  0  0  0  0  0  0  0  0  0
   14.7230    1.2560   58.3690 C   0  0  0  0  0  0  0  0  0  0  0  0
   13.2770    1.5530   57.9800 C   0  0  0  0  0  0  0  0  0  0  0  0
   12.2450    0.6500   58.6370 C   0  0  0  0  0  0  0  0  0  0  0  0
   11.9960   -0.5840   58.1270 N   0  0  0  0  0  0  0  0  0  0  0  0
   11.0660   -1.3900   58.6430 C   0  0  0  0  0  0  0  0  0  0  0  0
   10.3320   -0.9860   59.7700 C   0  0  0  0  0  0  0  0  0  0  0  0
   10.5670    0.2660   60.3190 C   0  0  0  0  0  0  0  0  0  0  0  0
   11.5260    1.1050   59.7500 C   0  0  0  0  0  0  0  0  0  0  0  0
  2  1  1  0
  3  2  2  0
  8  2  1  0
  4  3  1  0
  5  4  1  0
  6  4  2  0
  7  6  1  0
  8  7  2  0
  9  7  1  0
 10  9  1  0
 11 10  1  0
 13 10  1  0
 12 11  1  0
 14 12  1  0
 14 13  1  0
 15 13  1  0
 16 15  1  0
 17 16  1  0
 18 17  1  0
 19 18  1  0
 20 19  1  0
 21 20  1  0
 22 21  2  0
 26 21  1  0
 23 22  1  0
 24 23  2  0
 25 24  1  0
 26 25  2  0
A    1
N02
A    2
C02
A    3
C03
A    4
C04
A    5
C07
A    6
C05
A    7
C06
A    8
N01
A    9
C08
A   10
C4'
A   11
C5'
A   12
N1'
A   13
C3'
A   14
C2'
A   15
O09
A   16
C10
A   17
C11
A   18
C12
A   19
C13
A   20
C14
A   21
C26
A   22
N21
A   23
C22
A   24
C23
A   25
C24
A   26
C25
M  END
>  <Id>  (157) 
4CX5_HW8_B_800

>  <ChainId>  (157) 
B

>  <AsymId>  (157) 
J

>  <SeqNum>  (157) 
800

>  <Name>  (157) 
4-methyl-6-{[(3R,4R)-4-{[5-(pyridin-2-yl)pentyl]oxy}pyrrolidin-3-yl]methyl}pyridin-2-amine

>  <SystematicName>  (157) 
4-methyl-6-[[(3R,4R)-4-(5-pyridin-2-ylpentoxy)pyrrolidin-3-yl]methyl]pyridin-2-amine

>  <Synonyms>  (157) 


>  <Type>  (157) 
NON-POLYMER

>  <Formula>  (157) 
C21 H30 N4 O

>  <ObservedFormula>  (157) 
C21 N4 O

>  <MolecularWeight>  (157) 
354.489

>  <ModifiedDate>  (157) 
2012-07-06

>  <Parent>  (157) 


>  <OneLetterCode>  (157) 


>  <SubcomponentList>  (157) 


>  <AmbiguousFlag>  (157) 
N

>  <InsertionCode>  (157) 


>  <InstanceId>  (157) 
4CX5_HW8_B_800

>  <ChemCompId>  (157) 
HW8

>  <PdbId>  (157) 
4CX5

>  <ResidueNumber>  (157) 
800

>  <InChI>  (157) 
InChI=1S/C21H30N4O/c1-16-11-19(25-21(22)12-16)13-17-14-23-15-20(17)26-10-6-2-3-7-18-8-4-5-9-24-18/h4-5,8-9,11-12,17,20,23H,2-3,6-7,10,13-15H2,1H3,(H2,22,25)/t17-,20+/m1/s1

>  <InChIKey>  (157) 
CSFKTRORRCGDRY-XLIONFOSSA-N

>  <SMILES>  (157) 
Cc1cc(nc(c1)N)C[C@@H]2CNC[C@@H]2OCCCCCc3ccccn3

>  <MissingHeavyAtoms>  (157) 
0

>  <Model>  (157) 
1

>  <AltIds>  (157) 


>  <pKI>  (157) 
7.13

>  <ChemblID>  (157) 
-

>  <standardized_canonical_smiles>  (157) 
Cc1cc(N)nc(C[C@@H]2CNC[C@@H]2OCCCCCc2ccccn2)c1

$$$$
3UFW_HW0_B_800
     RDKit          3D

 27 29  0  0  0  0  0  0  0  0999 V2000
   10.8300   -2.0990   58.3670 N   0  0  0  0  0  0  0  0  0  0  0  0
   11.0390   -0.8780   58.8670 C   0  0  0  0  0  0  0  0  0  0  0  0
   10.3980   -0.5010   60.0440 C   0  0  0  0  0  0  0  0  0  0  0  0
   10.5880    0.7800   60.5640 C   0  0  0  0  0  0  0  0  0  0  0  0
   11.4270    1.6180   59.8470 C   0  0  0  0  0  0  0  0  0  0  0  0
   11.8700   -0.0530   58.1970 N   0  0  0  0  0  0  0  0  0  0  0  0
   12.0680    1.2110   58.6750 C   0  0  0  0  0  0  0  0  0  0  0  0
   13.0080    2.1730   57.9360 C   0  0  0  0  0  0  0  0  0  0  0  0
   14.4270    1.5730   58.0230 C   0  0  0  0  0  0  0  0  0  0  0  0
   15.5040    2.6270   58.1940 C   0  0  0  0  0  0  0  0  0  0  0  0
   16.0950    3.1830   56.9260 C   0  0  0  0  0  0  0  0  0  0  0  0
   17.6090    2.8960   56.8940 C   0  0  0  0  0  0  0  0  0  0  0  0
   18.2120    4.0920   56.4210 O   0  0  0  0  0  0  0  0  0  0  0  0
   18.9720    4.1340   55.2060 C   0  0  0  0  0  0  0  0  0  0  0  0
   18.4950    3.1500   54.1150 C   0  0  0  0  0  0  0  0  0  0  0  0
   17.4200    3.8750   53.4530 N   0  0  0  0  0  0  0  0  0  0  0  0
   17.4410    5.3080   53.7810 C   0  0  0  0  0  0  0  0  0  0  0  0
   18.6910    5.5220   54.6550 C   0  0  0  0  0  0  0  0  0  0  0  0
   18.4880    6.5560   55.7680 C   0  0  0  0  0  0  0  0  0  0  0  0
   18.3180    7.9540   55.2100 C   0  0  0  0  0  0  0  0  0  0  0  0
   17.1030    8.5720   55.2170 N   0  0  0  0  0  0  0  0  0  0  0  0
   16.9170    9.8350   54.7160 C   0  0  0  0  0  0  0  0  0  0  0  0
   15.6850   10.4220   54.7440 N   0  0  0  0  0  0  0  0  0  0  0  0
   18.0230   10.5210   54.1760 C   0  0  0  0  0  0  0  0  0  0  0  0
   19.2920    9.9040   54.1710 C   0  0  0  0  0  0  0  0  0  0  0  0
   19.4310    8.6110   54.6890 C   0  0  0  0  0  0  0  0  0  0  0  0
   20.5080   10.5930   53.5840 C   0  0  0  0  0  0  0  0  0  0  0  0
  2  1  1  0
  3  2  2  0
  6  2  1  0
  4  3  1  0
  5  4  2  0
  7  5  1  0
  7  6  2  0
  8  7  1  0
  9  8  1  0
 10  9  1  0
 11 10  1  0
 12 11  1  0
 13 12  1  0
 14 13  1  0
 15 14  1  0
 18 14  1  0
 16 15  1  0
 17 16  1  0
 18 17  1  0
 19 18  1  0
 20 19  1  0
 21 20  2  0
 26 20  1  0
 22 21  1  0
 23 22  1  0
 24 22  2  0
 25 24  1  0
 26 25  2  0
 27 25  1  0
A    1
N22
A    2
C22
A    3
C23
A    4
C24
A    5
C25
A    6
N21
A    7
C26
A    8
C14
A    9
C13
A   10
C12
A   11
C11
A   12
C10
A   13
O09
A   14
C4'
A   15
C5'
A   16
N1'
A   17
C2'
A   18
C3'
A   19
C08
A   20
C06
A   21
N01
A   22
C02
A   23
N02
A   24
C03
A   25
C04
A   26
C05
A   27
C07
M  END
>  <Id>  (158) 
3UFW_HW0_B_800

>  <ChainId>  (158) 
B

>  <AsymId>  (158) 
J

>  <SeqNum>  (158) 
800

>  <Name>  (158) 
6-{[(3R,4R)-4-{[5-(6-aminopyridin-2-yl)pentyl]oxy}pyrrolidin-3-yl]methyl}-4-methylpyridin-2-amine

>  <SystematicName>  (158) 
6-[[(3R,4R)-4-[5-(6-azanylpyridin-2-yl)pentoxy]pyrrolidin-3-yl]methyl]-4-methyl-pyridin-2-amine

>  <Synonyms>  (158) 


>  <Type>  (158) 
NON-POLYMER

>  <Formula>  (158) 
C21 H31 N5 O

>  <ObservedFormula>  (158) 
C21 N5 O

>  <MolecularWeight>  (158) 
369.504

>  <ModifiedDate>  (158) 
2012-07-06

>  <Parent>  (158) 


>  <OneLetterCode>  (158) 


>  <SubcomponentList>  (158) 


>  <AmbiguousFlag>  (158) 
N

>  <InsertionCode>  (158) 


>  <InstanceId>  (158) 
3UFW_HW0_B_800

>  <ChemCompId>  (158) 
HW0

>  <PdbId>  (158) 
3UFW

>  <ResidueNumber>  (158) 
800

>  <InChI>  (158) 
InChI=1S/C21H31N5O/c1-15-10-18(26-21(23)11-15)12-16-13-24-14-19(16)27-9-4-2-3-6-17-7-5-8-20(22)25-17/h5,7-8,10-11,16,19,24H,2-4,6,9,12-14H2,1H3,(H2,22,25)(H2,23,26)/t16-,19+/m1/s1

>  <InChIKey>  (158) 
ISEYRPTZYRJQPZ-APWZRJJASA-N

>  <SMILES>  (158) 
Cc1cc(nc(c1)N)C[C@@H]2CNC[C@@H]2OCCCCCc3cccc(n3)N

>  <MissingHeavyAtoms>  (158) 
0

>  <Model>  (158) 
1

>  <AltIds>  (158) 


>  <pKI>  (158) 
7.52

>  <ChemblID>  (158) 
-

>  <standardized_canonical_smiles>  (158) 
Cc1cc(N)nc(C[C@@H]2CNC[C@@H]2OCCCCCc2cccc(N)n2)c1

$$$$
3UFS_HW6_B_800
     RDKit          3D

 28 30  0  0  0  0  0  0  0  0999 V2000
    9.9920   -0.0270   61.0660 F   0  0  0  0  0  0  0  0  0  0  0  0
   10.7160   -0.0250   59.9140 C   0  0  0  0  0  0  0  0  0  0  0  0
   10.8040   -1.1640   59.0780 C   0  0  0  0  0  0  0  0  0  0  0  0
   11.3640    1.1640   59.5840 C   0  0  0  0  0  0  0  0  0  0  0  0
   12.1190    1.2260   58.4040 C   0  0  0  0  0  0  0  0  0  0  0  0
   12.1800    0.1070   57.5990 C   0  0  0  0  0  0  0  0  0  0  0  0
   11.5520   -1.0950   57.9080 C   0  0  0  0  0  0  0  0  0  0  0  0
   11.7680   -2.4360   56.7020 Cl  0  0  0  0  0  0  0  0  0  0  0  0
   12.8640    2.4920   57.9610 C   0  0  0  0  0  0  0  0  0  0  0  0
   14.4040    2.2890   57.8980 C   0  0  0  0  0  0  0  0  0  0  0  0
   15.0740    3.6020   57.4350 C   0  0  0  0  0  0  0  0  0  0  0  0
   16.4550    3.8440   58.0500 C   0  0  0  0  0  0  0  0  0  0  0  0
   17.5880    3.1570   57.2970 C   0  0  0  0  0  0  0  0  0  0  0  0
   17.6210    3.8160   56.0240 O   0  0  0  0  0  0  0  0  0  0  0  0
   18.8750    4.2790   55.4970 C   0  0  0  0  0  0  0  0  0  0  0  0
   18.6630    5.6260   54.8090 C   0  0  0  0  0  0  0  0  0  0  0  0
   17.8050    5.2610   53.5960 C   0  0  0  0  0  0  0  0  0  0  0  0
   18.1150    3.8500   53.3500 N   0  0  0  0  0  0  0  0  0  0  0  0
   19.1260    3.3700   54.2920 C   0  0  0  0  0  0  0  0  0  0  0  0
   18.0300    6.7020   55.6940 C   0  0  0  0  0  0  0  0  0  0  0  0
   18.0000    8.1340   55.1620 C   0  0  0  0  0  0  0  0  0  0  0  0
   19.1310    8.7540   54.6360 C   0  0  0  0  0  0  0  0  0  0  0  0
   19.0530   10.0740   54.1660 C   0  0  0  0  0  0  0  0  0  0  0  0
   20.3010   10.7210   53.5900 C   0  0  0  0  0  0  0  0  0  0  0  0
   17.8290   10.7700   54.2290 C   0  0  0  0  0  0  0  0  0  0  0  0
   16.7060   10.1080   54.7630 C   0  0  0  0  0  0  0  0  0  0  0  0
   16.8320    8.8290   55.2090 N   0  0  0  0  0  0  0  0  0  0  0  0
   15.4990   10.7230   54.8760 N   0  0  0  0  0  0  0  0  0  0  0  0
  2  1  1  0
  3  2  2  0
  4  2  1  0
  7  3  1  0
  5  4  2  0
  6  5  1  0
  9  5  1  0
  7  6  2  0
  8  7  1  0
 10  9  1  0
 11 10  1  0
 12 11  1  0
 13 12  1  0
 14 13  1  0
 15 14  1  0
 16 15  1  0
 19 15  1  0
 17 16  1  0
 20 16  1  0
 18 17  1  0
 19 18  1  0
 21 20  1  0
 22 21  2  0
 27 21  1  0
 23 22  1  0
 24 23  1  0
 25 23  2  0
 26 25  1  0
 27 26  2  0
 28 26  1  0
A    1
F23
A    2
C23
A    3
C24
A    4
C22
A    5
C21
A    6
C26
A    7
C25
A    8
CL2
A    9
C14
A   10
C13
A   11
C12
A   12
C11
A   13
C10
A   14
O09
A   15
C3'
A   16
C4'
A   17
C5'
A   18
N1'
A   19
C2'
A   20
C08
A   21
C06
A   22
C05
A   23
C04
A   24
C07
A   25
C03
A   26
C02
A   27
N01
A   28
N02
M  END
>  <Id>  (159) 
3UFS_HW6_B_800

>  <ChainId>  (159) 
B

>  <AsymId>  (159) 
J

>  <SeqNum>  (159) 
800

>  <Name>  (159) 
6-{[(3R,4R)-4-{[5-(3-chloro-5-fluorophenyl)pentyl]oxy}pyrrolidin-3-yl]methyl}-4-methylpyridin-2-amine

>  <SystematicName>  (159) 
6-[[(3R,4R)-4-[5-(3-chloranyl-5-fluoranyl-phenyl)pentoxy]pyrrolidin-3-yl]methyl]-4-methyl-pyridin-2-amine

>  <Synonyms>  (159) 


>  <Type>  (159) 
NON-POLYMER

>  <Formula>  (159) 
C22 H29 Cl F N3 O

>  <ObservedFormula>  (159) 
C22 F Cl N3 O

>  <MolecularWeight>  (159) 
405.937

>  <ModifiedDate>  (159) 
2012-07-06

>  <Parent>  (159) 


>  <OneLetterCode>  (159) 


>  <SubcomponentList>  (159) 


>  <AmbiguousFlag>  (159) 
N

>  <InsertionCode>  (159) 


>  <InstanceId>  (159) 
3UFS_HW6_B_800

>  <ChemCompId>  (159) 
HW6

>  <PdbId>  (159) 
3UFS

>  <ResidueNumber>  (159) 
800

>  <InChI>  (159) 
InChI=1S/C22H29ClFN3O/c1-15-7-20(27-22(25)8-15)11-17-13-26-14-21(17)28-6-4-2-3-5-16-9-18(23)12-19(24)10-16/h7-10,12,17,21,26H,2-6,11,13-14H2,1H3,(H2,25,27)/t17-,21+/m1/s1

>  <InChIKey>  (159) 
MZDDSPGKIFAODF-UTKZUKDTSA-N

>  <SMILES>  (159) 
Cc1cc(nc(c1)N)C[C@@H]2CNC[C@@H]2OCCCCCc3cc(cc(c3)Cl)F

>  <MissingHeavyAtoms>  (159) 
0

>  <Model>  (159) 
1

>  <AltIds>  (159) 


>  <pKI>  (159) 
6.64

>  <ChemblID>  (159) 
-

>  <standardized_canonical_smiles>  (159) 
Cc1cc(N)nc(C[C@@H]2CNC[C@@H]2OCCCCCc2cc(F)cc(Cl)c2)c1

$$$$
3UFT_HW7_B_800
     RDKit          3D

 28 30  0  0  0  0  0  0  0  0999 V2000
   11.8790   -2.4880   56.6760 Cl  0  0  0  0  0  0  0  0  0  0  0  0
   11.6820   -1.1190   57.8680 C   0  0  0  0  0  0  0  0  0  0  0  0
   10.8590   -1.1450   58.9980 C   0  0  0  0  0  0  0  0  0  0  0  0
   10.8460   -0.0020   59.8490 C   0  0  0  0  0  0  0  0  0  0  0  0
   10.0770    0.0560   60.9580 F   0  0  0  0  0  0  0  0  0  0  0  0
   11.6020    1.1420   59.5760 C   0  0  0  0  0  0  0  0  0  0  0  0
   12.4660    0.0220   57.6340 C   0  0  0  0  0  0  0  0  0  0  0  0
   12.4350    1.1490   58.4610 C   0  0  0  0  0  0  0  0  0  0  0  0
   13.1990    2.2540   58.1240 O   0  0  0  0  0  0  0  0  0  0  0  0
   14.6130    2.1000   57.7920 C   0  0  0  0  0  0  0  0  0  0  0  0
   15.0970    3.4320   57.2070 C   0  0  0  0  0  0  0  0  0  0  0  0
   16.3710    3.9050   57.8910 C   0  0  0  0  0  0  0  0  0  0  0  0
   17.5900    3.1510   57.3790 C   0  0  0  0  0  0  0  0  0  0  0  0
   17.7180    3.6340   56.0450 O   0  0  0  0  0  0  0  0  0  0  0  0
   18.9930    4.1990   55.6170 C   0  0  0  0  0  0  0  0  0  0  0  0
   19.3430    3.3800   54.3720 C   0  0  0  0  0  0  0  0  0  0  0  0
   18.7970    5.5570   54.9450 C   0  0  0  0  0  0  0  0  0  0  0  0
   17.8430    5.2140   53.7940 C   0  0  0  0  0  0  0  0  0  0  0  0
   18.3420    3.8860   53.4130 N   0  0  0  0  0  0  0  0  0  0  0  0
   18.4120    6.7040   55.8840 C   0  0  0  0  0  0  0  0  0  0  0  0
   18.2520    8.0940   55.2740 C   0  0  0  0  0  0  0  0  0  0  0  0
   17.0010    8.7330   55.2550 N   0  0  0  0  0  0  0  0  0  0  0  0
   19.3320    8.7110   54.7120 C   0  0  0  0  0  0  0  0  0  0  0  0
   19.2170    9.9870   54.1800 C   0  0  0  0  0  0  0  0  0  0  0  0
   20.4420   10.6250   53.5890 C   0  0  0  0  0  0  0  0  0  0  0  0
   17.9630   10.6350   54.1940 C   0  0  0  0  0  0  0  0  0  0  0  0
   16.8580    9.9590   54.7290 C   0  0  0  0  0  0  0  0  0  0  0  0
   15.6490   10.5530   54.7810 N   0  0  0  0  0  0  0  0  0  0  0  0
  2  1  1  0
  3  2  2  0
  7  2  1  0
  4  3  1  0
  5  4  1  0
  6  4  2  0
  8  6  1  0
  8  7  2  0
  9  8  1  0
 10  9  1  0
 11 10  1  0
 12 11  1  0
 13 12  1  0
 14 13  1  0
 15 14  1  0
 16 15  1  0
 17 15  1  0
 19 16  1  0
 18 17  1  0
 20 17  1  0
 19 18  1  0
 21 20  1  0
 22 21  2  0
 23 21  1  0
 27 22  1  0
 24 23  2  0
 25 24  1  0
 26 24  1  0
 27 26  2  0
 28 27  1  0
A    1
CL2
A    2
C25
A    3
C24
A    4
C23
A    5
F23
A    6
C22
A    7
C26
A    8
C21
A    9
O14
A   10
C13
A   11
C12
A   12
C11
A   13
C10
A   14
O09
A   15
C3'
A   16
C2'
A   17
C4'
A   18
C5'
A   19
N1'
A   20
C08
A   21
C06
A   22
N01
A   23
C05
A   24
C04
A   25
C07
A   26
C03
A   27
C02
A   28
N02
M  END
>  <Id>  (160) 
3UFT_HW7_B_800

>  <ChainId>  (160) 
B

>  <AsymId>  (160) 
J

>  <SeqNum>  (160) 
800

>  <Name>  (160) 
6-({(3R,4R)-4-[4-(3-chloro-5-fluorophenoxy)butoxy]pyrrolidin-3-yl}methyl)-4-methylpyridin-2-amine

>  <SystematicName>  (160) 
6-[[(3R,4R)-4-[4-(3-chloranyl-5-fluoranyl-phenoxy)butoxy]pyrrolidin-3-yl]methyl]-4-methyl-pyridin-2-amine

>  <Synonyms>  (160) 


>  <Type>  (160) 
NON-POLYMER

>  <Formula>  (160) 
C21 H27 Cl F N3 O2

>  <ObservedFormula>  (160) 
C21 F Cl N3 O2

>  <MolecularWeight>  (160) 
407.909

>  <ModifiedDate>  (160) 
2012-07-06

>  <Parent>  (160) 


>  <OneLetterCode>  (160) 


>  <SubcomponentList>  (160) 


>  <AmbiguousFlag>  (160) 
N

>  <InsertionCode>  (160) 


>  <InstanceId>  (160) 
3UFT_HW7_B_800

>  <ChemCompId>  (160) 
HW7

>  <PdbId>  (160) 
3UFT

>  <ResidueNumber>  (160) 
800

>  <InChI>  (160) 
InChI=1S/C21H27ClFN3O2/c1-14-6-18(26-21(24)7-14)8-15-12-25-13-20(15)28-5-3-2-4-27-19-10-16(22)9-17(23)11-19/h6-7,9-11,15,20,25H,2-5,8,12-13H2,1H3,(H2,24,26)/t15-,20+/m1/s1

>  <InChIKey>  (160) 
AXHBVFDWXKWFTE-QRWLVFNGSA-N

>  <SMILES>  (160) 
Cc1cc(nc(c1)N)C[C@@H]2CNC[C@@H]2OCCCCOc3cc(cc(c3)Cl)F

>  <MissingHeavyAtoms>  (160) 
0

>  <Model>  (160) 
1

>  <AltIds>  (160) 


>  <pKI>  (160) 
6.93

>  <ChemblID>  (160) 
-

>  <standardized_canonical_smiles>  (160) 
Cc1cc(N)nc(C[C@@H]2CNC[C@@H]2OCCCCOc2cc(F)cc(Cl)c2)c1

$$$$
3NLZ_3XD_B_800
     RDKit          3D

 28 30  0  0  0  0  0  0  0  0999 V2000
   18.1920    2.5430   57.2190 C   0  0  0  0  0  0  0  0  0  0  0  0
   17.8040    3.5170   56.2570 O   0  0  0  0  0  0  0  0  0  0  0  0
   16.9930    2.2170   58.0940 C   0  0  0  0  0  0  0  0  0  0  0  0
   15.9280    1.5030   57.3970 N   0  0  0  0  0  0  0  0  0  0  0  0
   14.5830    1.4720   57.9410 C   0  0  0  0  0  0  0  0  0  0  0  0
   14.4330    0.5040   59.1200 C   0  0  0  0  0  0  0  0  0  0  0  0
   15.1490    0.9250   60.1520 F   0  0  0  0  0  0  0  0  0  0  0  0
   14.8770   -0.6970   58.7820 F   0  0  0  0  0  0  0  0  0  0  0  0
   17.4650    3.6540   53.3770 N   0  0  0  0  0  0  0  0  0  0  0  0
   12.9850    0.4200   59.5390 C   0  0  0  0  0  0  0  0  0  0  0  0
   12.5720    1.0110   60.7240 C   0  0  0  0  0  0  0  0  0  0  0  0
   11.2330    0.9550   61.1370 C   0  0  0  0  0  0  0  0  0  0  0  0
   10.3180    0.2560   60.3470 C   0  0  0  0  0  0  0  0  0  0  0  0
   10.7220   -0.3550   59.1540 C   0  0  0  0  0  0  0  0  0  0  0  0
   12.0560   -0.2740   58.7490 C   0  0  0  0  0  0  0  0  0  0  0  0
   17.1270    8.2920   55.3160 N   0  0  0  0  0  0  0  0  0  0  0  0
   18.5450    2.9180   54.0380 C   0  0  0  0  0  0  0  0  0  0  0  0
   18.3230    7.6380   55.2670 C   0  0  0  0  0  0  0  0  0  0  0  0
   18.8170    3.7710   55.2910 C   0  0  0  0  0  0  0  0  0  0  0  0
   19.4230    8.2390   54.6540 C   0  0  0  0  0  0  0  0  0  0  0  0
   18.6190    5.1880   54.7970 C   0  0  0  0  0  0  0  0  0  0  0  0
   19.2700    9.4900   54.0660 C   0  0  0  0  0  0  0  0  0  0  0  0
   17.3830    5.0350   53.8630 C   0  0  0  0  0  0  0  0  0  0  0  0
   18.0330   10.1330   54.1350 C   0  0  0  0  0  0  0  0  0  0  0  0
   16.9580    9.5140   54.7650 C   0  0  0  0  0  0  0  0  0  0  0  0
   15.7530   10.1540   54.8070 N   0  0  0  0  0  0  0  0  0  0  0  0
   18.4560    6.2560   55.9020 C   0  0  0  0  0  0  0  0  0  0  0  0
   20.4320   10.1580   53.3870 C   0  0  0  0  0  0  0  0  0  0  0  0
  2  1  1  0
  3  1  1  0
 19  2  1  0
  4  3  1  0
  5  4  1  0
  6  5  1  0
  7  6  1  0
  8  6  1  0
 10  6  1  0
 17  9  1  0
 23  9  1  0
 11 10  2  0
 15 10  1  0
 12 11  1  0
 13 12  2  0
 14 13  1  0
 15 14  2  0
 18 16  2  0
 25 16  1  0
 19 17  1  0
 20 18  1  0
 27 18  1  0
 21 19  1  0
 22 20  2  0
 23 21  1  0
 27 21  1  0
 24 22  1  0
 28 22  1  0
 25 24  2  0
 26 25  1  0
A    1
C1
A    2
O1
A    3
C2
A    4
N2
A    5
C3
A    6
C4
A    7
F5
A    8
F6
A    9
N1'
A   10
C11
A   11
C12
A   12
C13
A   13
C14
A   14
C15
A   15
C16
A   16
N1A
A   17
C2'
A   18
C2A
A   19
C3'
A   20
C3A
A   21
C4'
A   22
C4A
A   23
C5'
A   24
C5A
A   25
C6A
A   26
N6A
A   27
C7A
A   28
C8A
M  END
>  <Id>  (161) 
3NLZ_3XD_B_800

>  <ChainId>  (161) 
B

>  <AsymId>  (161) 
K

>  <SeqNum>  (161) 
800

>  <Name>  (161) 
6-{[(3R,4R)-4-{2-[(2,2-difluoro-2-phenylethyl)amino]ethoxy}pyrrolidin-3-yl]methyl}-4-methylpyridin-2-amine

>  <SystematicName>  (161) 
6-[[(3R,4R)-4-[2-[(2,2-difluoro-2-phenyl-ethyl)amino]ethoxy]pyrrolidin-3-yl]methyl]-4-methyl-pyridin-2-amine

>  <Synonyms>  (161) 


>  <Type>  (161) 
NON-POLYMER

>  <Formula>  (161) 
C21 H28 F2 N4 O

>  <ObservedFormula>  (161) 
C21 F2 N4 O

>  <MolecularWeight>  (161) 
390.47

>  <ModifiedDate>  (161) 
2011-06-04

>  <Parent>  (161) 


>  <OneLetterCode>  (161) 


>  <SubcomponentList>  (161) 


>  <AmbiguousFlag>  (161) 
N

>  <InsertionCode>  (161) 


>  <InstanceId>  (161) 
3NLZ_3XD_B_800

>  <ChemCompId>  (161) 
3XD

>  <PdbId>  (161) 
3NLZ

>  <ResidueNumber>  (161) 
800

>  <InChI>  (161) 
InChI=1S/C21H28F2N4O/c1-15-9-18(27-20(24)10-15)11-16-12-26-13-19(16)28-8-7-25-14-21(22,23)17-5-3-2-4-6-17/h2-6,9-10,16,19,25-26H,7-8,11-14H2,1H3,(H2,24,27)/t16-,19+/m1/s1

>  <InChIKey>  (161) 
RTMROEXMNLIGEG-APWZRJJASA-N

>  <SMILES>  (161) 
Cc1cc(nc(c1)N)C[C@@H]2CNC[C@@H]2OCCNCC(c3ccccc3)(F)F

>  <MissingHeavyAtoms>  (161) 
0

>  <Model>  (161) 
1

>  <AltIds>  (161) 


>  <pKI>  (161) 
7.07

>  <ChemblID>  (161) 
-

>  <standardized_canonical_smiles>  (161) 
Cc1cc(N)nc(C[C@@H]2CNC[C@@H]2OCCNCC(F)(F)c2ccccc2)c1

$$$$
3NM0_3XE_B_800
     RDKit          3D

 28 30  0  0  0  0  0  0  0  0999 V2000
   18.1830    2.3820   57.1980 C   0  0  0  0  0  0  0  0  0  0  0  0
   17.8710    3.4940   56.3700 O   0  0  0  0  0  0  0  0  0  0  0  0
   17.0070    2.1800   58.1450 C   0  0  0  0  0  0  0  0  0  0  0  0
   15.8440    1.6550   57.4550 N   0  0  0  0  0  0  0  0  0  0  0  0
   14.5340    1.6880   58.0770 C   0  0  0  0  0  0  0  0  0  0  0  0
   14.4190    0.6000   59.1380 C   0  0  0  0  0  0  0  0  0  0  0  0
   15.1020    0.9310   60.2160 F   0  0  0  0  0  0  0  0  0  0  0  0
   14.9310   -0.5290   58.6800 F   0  0  0  0  0  0  0  0  0  0  0  0
   17.5610    3.5950   53.4850 N   0  0  0  0  0  0  0  0  0  0  0  0
   12.9650    0.4280   59.5050 C   0  0  0  0  0  0  0  0  0  0  0  0
   12.4570    1.0200   60.6630 C   0  0  0  0  0  0  0  0  0  0  0  0
   11.1070    0.8720   61.0030 C   0  0  0  0  0  0  0  0  0  0  0  0
   10.2890    0.1000   60.1770 C   0  0  0  0  0  0  0  0  0  0  0  0
   10.7930   -0.5010   59.0230 C   0  0  0  0  0  0  0  0  0  0  0  0
   12.1290   -0.3340   58.6830 C   0  0  0  0  0  0  0  0  0  0  0  0
   17.0850    8.2930   55.3600 N   0  0  0  0  0  0  0  0  0  0  0  0
   18.6600    2.9230   54.1480 C   0  0  0  0  0  0  0  0  0  0  0  0
   18.2640    7.6100   55.2840 C   0  0  0  0  0  0  0  0  0  0  0  0
   18.8710    3.7830   55.3980 C   0  0  0  0  0  0  0  0  0  0  0  0
   19.5350    8.4220   55.1060 C   0  0  0  0  0  0  0  0  0  0  0  0
   18.6150    5.1880   54.8890 C   0  0  0  0  0  0  0  0  0  0  0  0
   19.2420    9.4080   53.9920 C   0  0  0  0  0  0  0  0  0  0  0  0
   17.4130    4.9760   53.9580 C   0  0  0  0  0  0  0  0  0  0  0  0
   17.9910   10.2530   54.2620 C   0  0  0  0  0  0  0  0  0  0  0  0
   16.9200    9.5540   54.8480 C   0  0  0  0  0  0  0  0  0  0  0  0
   15.7070   10.1980   54.9270 N   0  0  0  0  0  0  0  0  0  0  0  0
   18.3940    6.2550   55.9770 C   0  0  0  0  0  0  0  0  0  0  0  0
   20.4720   10.2300   53.5880 C   0  0  0  0  0  0  0  0  0  0  0  0
  2  1  1  0
  3  1  1  0
 19  2  1  0
  4  3  1  0
  5  4  1  0
  6  5  1  0
  7  6  1  0
  8  6  1  0
 10  6  1  0
 17  9  1  0
 23  9  1  0
 11 10  2  0
 15 10  1  0
 12 11  1  0
 13 12  2  0
 14 13  1  0
 15 14  2  0
 18 16  1  0
 25 16  2  0
 19 17  1  0
 20 18  1  0
 27 18  1  0
 21 19  1  0
 22 20  1  0
 23 21  1  0
 27 21  1  0
 24 22  1  0
 28 22  1  0
 25 24  1  0
 26 25  1  0
A    1
C1
A    2
O1
A    3
C2
A    4
N2
A    5
C3
A    6
C4
A    7
F5
A    8
F6
A    9
N1'
A   10
C11
A   11
C12
A   12
C13
A   13
C14
A   14
C15
A   15
C16
A   16
N1A
A   17
C2'
A   18
C2A
A   19
C3'
A   20
C3A
A   21
C4'
A   22
C4A
A   23
C5'
A   24
C5A
A   25
C6A
A   26
N6A
A   27
C7A
A   28
C8A
M  END
>  <Id>  (162) 
3NM0_3XE_B_800

>  <ChainId>  (162) 
B

>  <AsymId>  (162) 
J

>  <SeqNum>  (162) 
800

>  <Name>  (162) 
(4S,6S)-6-{[(3R,4R)-4-{2-[(2,2-difluoro-2-phenylethyl)amino]ethoxy}pyrrolidin-3-yl]methyl}-4-methyl-3,4,5,6-tetrahydropyridin-2-amine

>  <SystematicName>  (162) 
(2S,4S)-2-[[(3R,4R)-4-[2-[(2,2-difluoro-2-phenyl-ethyl)amino]ethoxy]pyrrolidin-3-yl]methyl]-4-methyl-2,3,4,5-tetrahydropyridin-6-amine

>  <Synonyms>  (162) 


>  <Type>  (162) 
NON-POLYMER

>  <Formula>  (162) 
C21 H32 F2 N4 O

>  <ObservedFormula>  (162) 
C21 F2 N4 O

>  <MolecularWeight>  (162) 
394.502

>  <ModifiedDate>  (162) 
2011-06-04

>  <Parent>  (162) 


>  <OneLetterCode>  (162) 


>  <SubcomponentList>  (162) 


>  <AmbiguousFlag>  (162) 
N

>  <InsertionCode>  (162) 


>  <InstanceId>  (162) 
3NM0_3XE_B_800

>  <ChemCompId>  (162) 
3XE

>  <PdbId>  (162) 
3NM0

>  <ResidueNumber>  (162) 
800

>  <InChI>  (162) 
InChI=1S/C21H32F2N4O/c1-15-9-18(27-20(24)10-15)11-16-12-26-13-19(16)28-8-7-25-14-21(22,23)17-5-3-2-4-6-17/h2-6,15-16,18-19,25-26H,7-14H2,1H3,(H2,24,27)/t15-,16+,18-,19-/m0/s1

>  <InChIKey>  (162) 
DAHQXGAQQOLJFX-NBMJBFSESA-N

>  <SMILES>  (162) 
C[C@H]1C[C@H](N=C(C1)N)C[C@@H]2CNC[C@@H]2OCCNCC(c3ccccc3)(F)F

>  <MissingHeavyAtoms>  (162) 
0

>  <Model>  (162) 
1

>  <AltIds>  (162) 


>  <pKI>  (162) 
6.77

>  <ChemblID>  (162) 
-

>  <standardized_canonical_smiles>  (162) 
C[C@@H]1CC(N)=N[C@H](C[C@@H]2CNC[C@@H]2OCCNCC(F)(F)c2ccccc2)C1

$$$$
3NLW_3XF_B_800
     RDKit          3D

 28 30  0  0  0  0  0  0  0  0999 V2000
   16.2040    2.9470   57.1720 O   0  0  0  0  0  0  0  0  0  0  0  0
   16.9860    3.9700   57.7600 C   0  0  0  0  0  0  0  0  0  0  0  0
   16.9270    5.1600   56.8220 C   0  0  0  0  0  0  0  0  0  0  0  0
   17.6910    4.8990   55.6130 N   0  0  0  0  0  0  0  0  0  0  0  0
   18.2300    6.0030   54.8500 C   0  0  0  0  0  0  0  0  0  0  0  0
   19.7570    6.0640   54.8870 C   0  0  0  0  0  0  0  0  0  0  0  0
   20.2190    5.4480   55.9710 F   0  0  0  0  0  0  0  0  0  0  0  0
   20.2730    5.5040   53.7890 F   0  0  0  0  0  0  0  0  0  0  0  0
   16.1960   -0.6110   57.2460 N   0  0  0  0  0  0  0  0  0  0  0  0
   18.9790    8.3760   55.0310 N   0  0  0  0  0  0  0  0  0  0  0  0
   20.1670    7.5310   54.9530 C   0  0  0  0  0  0  0  0  0  0  0  0
   21.0670    7.9290   53.7800 C   0  0  0  0  0  0  0  0  0  0  0  0
   21.3090    9.4380   53.7780 C   0  0  0  0  0  0  0  0  0  0  0  0
   20.0040   10.2350   53.7800 C   0  0  0  0  0  0  0  0  0  0  0  0
   19.0820    9.8200   54.9220 C   0  0  0  0  0  0  0  0  0  0  0  0
   12.1780   -0.2010   58.3190 N   0  0  0  0  0  0  0  0  0  0  0  0
   16.7990    0.5950   56.7220 C   0  0  0  0  0  0  0  0  0  0  0  0
   12.6730    0.9930   58.7160 C   0  0  0  0  0  0  0  0  0  0  0  0
   16.4480    1.6690   57.7720 C   0  0  0  0  0  0  0  0  0  0  0  0
   12.0850    1.6320   59.8040 C   0  0  0  0  0  0  0  0  0  0  0  0
   15.2370    1.1380   58.5440 C   0  0  0  0  0  0  0  0  0  0  0  0
   11.0020    1.0580   60.4700 C   0  0  0  0  0  0  0  0  0  0  0  0
   15.4230   -0.3820   58.4660 C   0  0  0  0  0  0  0  0  0  0  0  0
   10.5100   -0.1930   60.0420 C   0  0  0  0  0  0  0  0  0  0  0  0
   11.1350   -0.8020   58.9310 C   0  0  0  0  0  0  0  0  0  0  0  0
   10.7220   -2.0020   58.4490 N   0  0  0  0  0  0  0  0  0  0  0  0
   13.8730    1.6160   57.9920 C   0  0  0  0  0  0  0  0  0  0  0  0
   10.3960    1.7820   61.6480 C   0  0  0  0  0  0  0  0  0  0  0  0
  2  1  1  0
 19  1  1  0
  3  2  1  0
  4  3  1  0
  5  4  1  0
  6  5  1  0
  7  6  1  0
  8  6  1  0
 11  6  1  0
 17  9  1  0
 23  9  1  0
 11 10  1  0
 15 10  1  0
 12 11  1  0
 13 12  1  0
 14 13  1  0
 15 14  1  0
 18 16  2  0
 25 16  1  0
 19 17  1  0
 20 18  1  0
 27 18  1  0
 21 19  1  0
 22 20  2  0
 23 21  1  0
 27 21  1  0
 24 22  1  0
 28 22  1  0
 25 24  2  0
 26 25  1  0
A    1
O1
A    2
C2
A    3
C3
A    4
N4
A    5
C5
A    6
C6
A    7
F7
A    8
F8
A    9
N1'
A   10
N11
A   11
C12
A   12
C13
A   13
C14
A   14
C15
A   15
C16
A   16
N1A
A   17
C2'
A   18
C2A
A   19
C3'
A   20
C3A
A   21
C4'
A   22
C4A
A   23
C5'
A   24
C5A
A   25
C6A
A   26
N6A
A   27
C7A
A   28
C8A
M  END
>  <Id>  (163) 
3NLW_3XF_B_800

>  <ChainId>  (163) 
B

>  <AsymId>  (163) 
K

>  <SeqNum>  (163) 
800

>  <Name>  (163) 
6-({(3S,4S)-4-[2-({2,2-difluoro-2-[(2R)-piperidin-2-yl]ethyl}amino)ethoxy]pyrrolidin-3-yl}methyl)-4-methylpyridin-2-amine

>  <SystematicName>  (163) 
6-[[(3S,4S)-4-[2-[[2,2-difluoro-2-[(2R)-piperidin-2-yl]ethyl]amino]ethoxy]pyrrolidin-3-yl]methyl]-4-methyl-pyridin-2-amine

>  <Synonyms>  (163) 


>  <Type>  (163) 
NON-POLYMER

>  <Formula>  (163) 
C20 H33 F2 N5 O

>  <ObservedFormula>  (163) 
C20 F2 N5 O

>  <MolecularWeight>  (163) 
397.506

>  <ModifiedDate>  (163) 
2011-06-04

>  <Parent>  (163) 


>  <OneLetterCode>  (163) 


>  <SubcomponentList>  (163) 


>  <AmbiguousFlag>  (163) 
N

>  <InsertionCode>  (163) 


>  <InstanceId>  (163) 
3NLW_3XF_B_800

>  <ChemCompId>  (163) 
3XF

>  <PdbId>  (163) 
3NLW

>  <ResidueNumber>  (163) 
800

>  <InChI>  (163) 
InChI=1S/C20H33F2N5O/c1-14-8-16(27-19(23)9-14)10-15-11-25-12-17(15)28-7-6-24-13-20(21,22)18-4-2-3-5-26-18/h8-9,15,17-18,24-26H,2-7,10-13H2,1H3,(H2,23,27)/t15-,17+,18+/m0/s1

>  <InChIKey>  (163) 
PYDITBVREMCKIX-CGTJXYLNSA-N

>  <SMILES>  (163) 
Cc1cc(nc(c1)N)C[C@H]2CNC[C@H]2OCCNCC([C@H]3CCCCN3)(F)F

>  <MissingHeavyAtoms>  (163) 
0

>  <Model>  (163) 
1

>  <AltIds>  (163) 


>  <pKI>  (163) 
5.57

>  <ChemblID>  (163) 
-

>  <standardized_canonical_smiles>  (163) 
Cc1cc(N)nc(C[C@H]2CNC[C@H]2OCCNCC(F)(F)[C@H]2CCCCN2)c1

$$$$
6AUU_BY7_B_803
     RDKit          3D

 26 27  0  0  0  0  0  0  0  0999 V2000
   16.5610   -0.4360   53.3540 F   0  0  0  0  0  0  0  0  0  0  0  0
   17.6750   -0.1430   54.0060 C   0  0  0  0  0  0  0  0  0  0  0  0
   18.4930    0.4610   53.1570 F   0  0  0  0  0  0  0  0  0  0  0  0
   18.2490   -1.2680   54.3880 F   0  0  0  0  0  0  0  0  0  0  0  0
   17.3950    0.7600   55.2010 C   0  0  0  0  0  0  0  0  0  0  0  0
   18.1690    1.9080   55.3930 C   0  0  0  0  0  0  0  0  0  0  0  0
   17.9480    2.7600   56.4780 C   0  0  0  0  0  0  0  0  0  0  0  0
   18.7980    3.9950   56.6490 C   0  0  0  0  0  0  0  0  0  0  0  0
   18.2760    5.0370   55.6640 C   0  0  0  0  0  0  0  0  0  0  0  0
   19.0660    6.3370   55.7360 C   0  0  0  0  0  0  0  0  0  0  0  0
   18.1340    7.4720   55.6380 N   0  0  0  0  0  0  0  0  0  0  0  0
   18.2170    8.0890   54.3040 C   0  0  0  0  0  0  0  0  0  0  0  0
   18.4830    8.4570   56.6730 C   0  0  0  0  0  0  0  0  0  0  0  0
   16.3770    0.4830   56.1230 C   0  0  0  0  0  0  0  0  0  0  0  0
   16.1500    1.3460   57.2080 C   0  0  0  0  0  0  0  0  0  0  0  0
   16.9340    2.4840   57.3850 C   0  0  0  0  0  0  0  0  0  0  0  0
   15.0540    1.0610   58.2120 C   0  0  0  0  0  0  0  0  0  0  0  0
   13.7320    1.6710   57.7380 C   0  0  0  0  0  0  0  0  0  0  0  0
   12.6490    1.0020   58.5550 C   0  0  0  0  0  0  0  0  0  0  0  0
   12.2120   -0.2200   58.1940 N   0  0  0  0  0  0  0  0  0  0  0  0
   11.2590   -0.8650   58.8900 C   0  0  0  0  0  0  0  0  0  0  0  0
   10.8510   -2.0810   58.4690 N   0  0  0  0  0  0  0  0  0  0  0  0
   10.7070   -0.2770   60.0310 C   0  0  0  0  0  0  0  0  0  0  0  0
   11.1450    0.9750   60.4350 C   0  0  0  0  0  0  0  0  0  0  0  0
   12.1210    1.6180   59.6830 C   0  0  0  0  0  0  0  0  0  0  0  0
   10.5620    1.6330   61.6720 C   0  0  0  0  0  0  0  0  0  0  0  0
  2  1  1  0
  3  2  1  0
  4  2  1  0
  5  2  1  0
  6  5  2  0
 14  5  1  0
  7  6  1  0
  8  7  1  0
 16  7  2  0
  9  8  1  0
 10  9  1  0
 11 10  1  0
 12 11  1  0
 13 11  1  0
 15 14  2  0
 16 15  1  0
 17 15  1  0
 18 17  1  0
 19 18  1  0
 20 19  2  0
 25 19  1  0
 21 20  1  0
 22 21  1  0
 23 21  2  0
 24 23  1  0
 25 24  2  0
 26 24  1  0
A    1
F20
A    2
C17
A    3
F18
A    4
F19
A    5
C13
A    6
C14
A    7
C15
A    8
C21
A    9
C22
A   10
C23
A   11
N24
A   12
C26
A   13
C25
A   14
C12
A   15
C11
A   16
C16
A   17
C09
A   18
C08
A   19
C06
A   20
N01
A   21
C02
A   22
N02
A   23
C03
A   24
C04
A   25
C05
A   26
C07
M  END
>  <Id>  (164) 
6AUU_BY7_B_803

>  <ChainId>  (164) 
B

>  <AsymId>  (164) 
K

>  <SeqNum>  (164) 
803

>  <Name>  (164) 
6-(2-{3-[3-(dimethylamino)propyl]-5-(trifluoromethyl)phenyl}ethyl)-4-methylpyridin-2-amine

>  <SystematicName>  (164) 
6-[2-[3-[3-(dimethylamino)propyl]-5-(trifluoromethyl)phenyl]ethyl]-4-methyl-pyridin-2-amine

>  <Synonyms>  (164) 


>  <Type>  (164) 
NON-POLYMER

>  <Formula>  (164) 
C20 H26 F3 N3

>  <ObservedFormula>  (164) 
C20 F3 N3

>  <MolecularWeight>  (164) 
365.436

>  <ModifiedDate>  (164) 
2018-07-06

>  <Parent>  (164) 


>  <OneLetterCode>  (164) 


>  <SubcomponentList>  (164) 


>  <AmbiguousFlag>  (164) 
N

>  <InsertionCode>  (164) 


>  <InstanceId>  (164) 
6AUU_BY7_B_803

>  <ChemCompId>  (164) 
BY7

>  <PdbId>  (164) 
6AUU

>  <ResidueNumber>  (164) 
803

>  <InChI>  (164) 
InChI=1S/C20H26F3N3/c1-14-9-18(25-19(24)10-14)7-6-16-11-15(5-4-8-26(2)3)12-17(13-16)20(21,22)23/h9-13H,4-8H2,1-3H3,(H2,24,25)

>  <InChIKey>  (164) 
CTKGSJUPWJLHAK-UHFFFAOYSA-N

>  <SMILES>  (164) 
Cc1cc(nc(c1)N)CCc2cc(cc(c2)C(F)(F)F)CCCN(C)C

>  <MissingHeavyAtoms>  (164) 
0

>  <Model>  (164) 
1

>  <AltIds>  (164) 


>  <pKI>  (164) 
6.27

>  <ChemblID>  (164) 
-

>  <standardized_canonical_smiles>  (164) 
Cc1cc(N)nc(CCc2cc(CCCN(C)C)cc(C(F)(F)F)c2)c1

$$$$
6AUT_W69_B_803
     RDKit          3D

 23 24  0  0  0  0  0  0  0  0999 V2000
   19.8800   -0.0030   60.2310 F   0  0  0  0  0  0  0  0  0  0  0  0
   18.9270    0.5470   59.4580 C   0  0  0  0  0  0  0  0  0  0  0  0
   17.5980    0.2150   59.6910 C   0  0  0  0  0  0  0  0  0  0  0  0
   19.2570    1.4470   58.4350 C   0  0  0  0  0  0  0  0  0  0  0  0
   18.2540    2.0120   57.6430 C   0  0  0  0  0  0  0  0  0  0  0  0
   18.5170    2.9910   56.5100 C   0  0  0  0  0  0  0  0  0  0  0  0
   19.7230    3.8990   56.7250 C   0  0  0  0  0  0  0  0  0  0  0  0
   19.6460    5.1320   55.8130 C   0  0  0  0  0  0  0  0  0  0  0  0
   19.7890    4.7630   54.3940 N   0  0  0  0  0  0  0  0  0  0  0  0
   19.5570    5.9350   53.5360 C   0  0  0  0  0  0  0  0  0  0  0  0
   21.1440    4.2620   54.1430 C   0  0  0  0  0  0  0  0  0  0  0  0
   16.9300    1.6650   57.8940 C   0  0  0  0  0  0  0  0  0  0  0  0
   16.5930    0.7720   58.9070 C   0  0  0  0  0  0  0  0  0  0  0  0
   15.1560    0.3960   59.1760 C   0  0  0  0  0  0  0  0  0  0  0  0
   14.1490    1.2590   58.4270 C   0  0  0  0  0  0  0  0  0  0  0  0
   12.8420    0.7590   58.9970 C   0  0  0  0  0  0  0  0  0  0  0  0
   12.2750   -0.3570   58.4980 N   0  0  0  0  0  0  0  0  0  0  0  0
   11.1290   -0.8520   58.9810 C   0  0  0  0  0  0  0  0  0  0  0  0
   10.6360   -1.9770   58.4070 N   0  0  0  0  0  0  0  0  0  0  0  0
   10.4950   -0.2260   60.0690 C   0  0  0  0  0  0  0  0  0  0  0  0
   11.0720    0.9180   60.6230 C   0  0  0  0  0  0  0  0  0  0  0  0
   12.2540    1.3990   60.0780 C   0  0  0  0  0  0  0  0  0  0  0  0
   10.4480    1.6480   61.7890 C   0  0  0  0  0  0  0  0  0  0  0  0
  2  1  1  0
  3  2  2  0
  4  2  1  0
 13  3  1  0
  5  4  2  0
  6  5  1  0
 12  5  1  0
  7  6  1  0
  8  7  1  0
  9  8  1  0
 10  9  1  0
 11  9  1  0
 13 12  2  0
 14 13  1  0
 15 14  1  0
 16 15  1  0
 17 16  2  0
 22 16  1  0
 18 17  1  0
 19 18  1  0
 20 18  2  0
 21 20  1  0
 22 21  2  0
 23 21  1  0
A    1
F13
A    2
C13
A    3
C12
A    4
C14
A    5
C15
A    6
C17
A    7
C18
A    8
C19
A    9
N20
A   10
C21
A   11
C22
A   12
C16
A   13
C11
A   14
C09
A   15
C08
A   16
C06
A   17
N01
A   18
C02
A   19
N02
A   20
C03
A   21
C04
A   22
C05
A   23
C07
M  END
>  <Id>  (165) 
6AUT_W69_B_803

>  <ChainId>  (165) 
B

>  <AsymId>  (165) 
J

>  <SeqNum>  (165) 
803

>  <Name>  (165) 
6-(2-{3-[3-(dimethylamino)propyl]-5-fluorophenyl}ethyl)-4-methylpyridin-2-amine

>  <SystematicName>  (165) 
6-[2-[3-[3-(dimethylamino)propyl]-5-fluoranyl-phenyl]ethyl]-4-methyl-pyridin-2-amine

>  <Synonyms>  (165) 


>  <Type>  (165) 
NON-POLYMER

>  <Formula>  (165) 
C19 H26 F N3

>  <ObservedFormula>  (165) 
C19 F N3

>  <MolecularWeight>  (165) 
315.428

>  <ModifiedDate>  (165) 
2018-07-06

>  <Parent>  (165) 


>  <OneLetterCode>  (165) 


>  <SubcomponentList>  (165) 


>  <AmbiguousFlag>  (165) 
N

>  <InsertionCode>  (165) 


>  <InstanceId>  (165) 
6AUT_W69_B_803

>  <ChemCompId>  (165) 
W69

>  <PdbId>  (165) 
6AUT

>  <ResidueNumber>  (165) 
803

>  <InChI>  (165) 
InChI=1S/C19H26FN3/c1-14-9-18(22-19(21)10-14)7-6-16-11-15(12-17(20)13-16)5-4-8-23(2)3/h9-13H,4-8H2,1-3H3,(H2,21,22)

>  <InChIKey>  (165) 
QAFLXFWRGFNYKW-UHFFFAOYSA-N

>  <SMILES>  (165) 
Cc1cc(nc(c1)N)CCc2cc(cc(c2)F)CCCN(C)C

>  <MissingHeavyAtoms>  (165) 
0

>  <Model>  (165) 
1

>  <AltIds>  (165) 


>  <pKI>  (165) 
7.59

>  <ChemblID>  (165) 
-

>  <standardized_canonical_smiles>  (165) 
Cc1cc(N)nc(CCc2cc(F)cc(CCCN(C)C)c2)c1

$$$$
4EUX_HW1_B_804
     RDKit          3D

 28 30  0  0  0  0  0  0  0  0999 V2000
   15.5150   10.4380   54.5430 N   0  0  0  0  0  0  0  0  0  0  0  0
   16.7560    9.8880   54.6000 C   0  0  0  0  0  0  0  0  0  0  0  0
   17.8790   10.5670   54.1100 C   0  0  0  0  0  0  0  0  0  0  0  0
   19.1460    9.9530   54.1770 C   0  0  0  0  0  0  0  0  0  0  0  0
   20.3780   10.6510   53.6560 C   0  0  0  0  0  0  0  0  0  0  0  0
   19.2780    8.6850   54.7450 C   0  0  0  0  0  0  0  0  0  0  0  0
   16.9290    8.6510   55.1380 N   0  0  0  0  0  0  0  0  0  0  0  0
   18.1380    8.0580   55.2330 C   0  0  0  0  0  0  0  0  0  0  0  0
   18.2160    6.6920   55.8440 C   0  0  0  0  0  0  0  0  0  0  0  0
   19.3080    5.8850   55.1720 C   0  0  0  0  0  0  0  0  0  0  0  0
   19.1930    5.8460   53.6470 C   0  0  0  0  0  0  0  0  0  0  0  0
   19.7320    4.5380   53.3160 N   0  0  0  0  0  0  0  0  0  0  0  0
   19.8740    3.6530   54.4640 C   0  0  0  0  0  0  0  0  0  0  0  0
   19.3090    4.4470   55.6460 C   0  0  0  0  0  0  0  0  0  0  0  0
   17.9830    4.0390   56.0270 O   0  0  0  0  0  0  0  0  0  0  0  0
   18.0270    2.8730   56.8690 C   0  0  0  0  0  0  0  0  0  0  0  0
   16.8460    2.8380   57.8290 C   0  0  0  0  0  0  0  0  0  0  0  0
   15.5250    3.0000   57.0860 C   0  0  0  0  0  0  0  0  0  0  0  0
   14.2850    2.5720   57.8780 C   0  0  0  0  0  0  0  0  0  0  0  0
   14.2430    1.1260   58.3530 C   0  0  0  0  0  0  0  0  0  0  0  0
   12.8470    0.6830   58.8690 C   0  0  0  0  0  0  0  0  0  0  0  0
   12.2290   -0.3980   58.3230 N   0  0  0  0  0  0  0  0  0  0  0  0
   11.0480   -0.8800   58.7600 C   0  0  0  0  0  0  0  0  0  0  0  0
   10.5680   -1.9790   58.1400 N   0  0  0  0  0  0  0  0  0  0  0  0
   10.3680   -0.2530   59.8260 C   0  0  0  0  0  0  0  0  0  0  0  0
   10.9550    0.8700   60.4090 C   0  0  0  0  0  0  0  0  0  0  0  0
   12.1940    1.3160   59.9380 C   0  0  0  0  0  0  0  0  0  0  0  0
   10.3110    1.6080   61.5510 C   0  0  0  0  0  0  0  0  0  0  0  0
  2  1  1  0
  3  2  2  0
  7  2  1  0
  4  3  1  0
  5  4  1  0
  6  4  2  0
  8  6  1  0
  8  7  2  0
  9  8  1  0
 10  9  1  0
 11 10  1  0
 14 10  1  0
 12 11  1  0
 13 12  1  0
 14 13  1  0
 15 14  1  0
 16 15  1  0
 17 16  1  0
 18 17  1  0
 19 18  1  0
 20 19  1  0
 21 20  1  0
 22 21  2  0
 27 21  1  0
 23 22  1  0
 24 23  1  0
 25 23  2  0
 26 25  1  0
 27 26  2  0
 28 26  1  0
A    1
N02
A    2
C02
A    3
C03
A    4
C04
A    5
C07
A    6
C05
A    7
N01
A    8
C06
A    9
C08
A   10
C3'
A   11
C2'
A   12
N1'
A   13
C5'
A   14
C4'
A   15
O09
A   16
C10
A   17
C11
A   18
C12
A   19
C13
A   20
C14
A   21
C26
A   22
N21
A   23
C22
A   24
N22
A   25
C23
A   26
C24
A   27
C25
A   28
C27
M  END
>  <Id>  (166) 
4EUX_HW1_B_804

>  <ChainId>  (166) 
B

>  <AsymId>  (166) 
K

>  <SeqNum>  (166) 
804

>  <Name>  (166) 
6-[5-({(3R,4R)-4-[(6-amino-4-methylpyridin-2-yl)methyl]pyrrolidin-3-yl}oxy)pentyl]-4-methylpyridin-2-amine

>  <SystematicName>  (166) 
6-[5-[(3R,4R)-4-[(6-azanyl-4-methyl-pyridin-2-yl)methyl]pyrrolidin-3-yl]oxypentyl]-4-methyl-pyridin-2-amine

>  <Synonyms>  (166) 


>  <Type>  (166) 
NON-POLYMER

>  <Formula>  (166) 
C22 H33 N5 O

>  <ObservedFormula>  (166) 
C22 N5 O

>  <MolecularWeight>  (166) 
383.53

>  <ModifiedDate>  (166) 
2012-07-06

>  <Parent>  (166) 


>  <OneLetterCode>  (166) 


>  <SubcomponentList>  (166) 


>  <AmbiguousFlag>  (166) 
N

>  <InsertionCode>  (166) 


>  <InstanceId>  (166) 
4EUX_HW1_B_804

>  <ChemCompId>  (166) 
HW1

>  <PdbId>  (166) 
4EUX

>  <ResidueNumber>  (166) 
804

>  <InChI>  (166) 
InChI=1S/C22H33N5O/c1-15-8-18(26-21(23)10-15)6-4-3-5-7-28-20-14-25-13-17(20)12-19-9-16(2)11-22(24)27-19/h8-11,17,20,25H,3-7,12-14H2,1-2H3,(H2,23,26)(H2,24,27)/t17-,20+/m1/s1

>  <InChIKey>  (166) 
WKAYHKZPKWNKSL-XLIONFOSSA-N

>  <SMILES>  (166) 
Cc1cc(nc(c1)N)CCCCCO[C@H]2CNC[C@H]2Cc3cc(cc(n3)N)C

>  <MissingHeavyAtoms>  (166) 
0

>  <Model>  (166) 
1

>  <AltIds>  (166) 


>  <pKI>  (166) 
7.42

>  <ChemblID>  (166) 
-

>  <standardized_canonical_smiles>  (166) 
Cc1cc(N)nc(CCCCCO[C@H]2CNC[C@H]2Cc2cc(C)cc(N)n2)c1

$$$$
5UNS_8J4_B_803
     RDKit          3D

 24 26  0  0  0  0  0  0  0  0999 V2000
   12.5600    1.2550   58.0510 C   0  0  0  0  0  0  0  0  0  0  0  0
   15.0250    3.7110   56.6530 C   0  0  0  0  0  0  0  0  0  0  0  0
   11.2390   -2.0360   58.4780 N   0  0  0  0  0  0  0  0  0  0  0  0
   11.3810   -0.6930   58.5960 C   0  0  0  0  0  0  0  0  0  0  0  0
   12.3910   -0.0810   57.9600 N   0  0  0  0  0  0  0  0  0  0  0  0
   10.5110    0.0630   59.3820 C   0  0  0  0  0  0  0  0  0  0  0  0
   10.6570    1.4450   59.4860 C   0  0  0  0  0  0  0  0  0  0  0  0
   11.7090    2.0500   58.8110 C   0  0  0  0  0  0  0  0  0  0  0  0
   11.9250    3.4270   58.8720 C   0  0  0  0  0  0  0  0  0  0  0  0
   12.9870    4.0080   58.1780 C   0  0  0  0  0  0  0  0  0  0  0  0
   13.8410    3.1980   57.4350 C   0  0  0  0  0  0  0  0  0  0  0  0
   13.6200    1.8310   57.3830 C   0  0  0  0  0  0  0  0  0  0  0  0
   15.3530    5.0790   56.8420 O   0  0  0  0  0  0  0  0  0  0  0  0
   16.5080    5.5030   56.2340 C   0  0  0  0  0  0  0  0  0  0  0  0
   16.7440    6.8530   56.0210 C   0  0  0  0  0  0  0  0  0  0  0  0
   17.4600    4.5640   55.8380 C   0  0  0  0  0  0  0  0  0  0  0  0
   18.6360    4.9800   55.2200 C   0  0  0  0  0  0  0  0  0  0  0  0
   19.6810    3.9820   54.7810 C   0  0  0  0  0  0  0  0  0  0  0  0
   20.0950    4.3450   53.4150 N   0  0  0  0  0  0  0  0  0  0  0  0
   21.4240    3.7870   53.1090 C   0  0  0  0  0  0  0  0  0  0  0  0
   18.8620    6.3330   55.0040 C   0  0  0  0  0  0  0  0  0  0  0  0
   17.9160    7.2630   55.4060 C   0  0  0  0  0  0  0  0  0  0  0  0
   18.1730    8.7260   55.1720 C   0  0  0  0  0  0  0  0  0  0  0  0
   18.7040    8.9410   53.7730 C   0  0  0  0  0  0  0  0  0  0  0  0
  5  1  1  0
  8  1  2  0
 12  1  1  0
 11  2  1  0
 13  2  1  0
  4  3  1  0
  5  4  2  0
  6  4  1  0
  7  6  2  0
  8  7  1  0
  9  8  1  0
 10  9  2  0
 11 10  1  0
 12 11  2  0
 14 13  1  0
 15 14  2  0
 16 14  1  0
 22 15  1  0
 17 16  2  0
 18 17  1  0
 21 17  1  0
 19 18  1  0
 20 19  1  0
 22 21  2  0
 23 22  1  0
 24 23  1  0
A    1
C10
A    2
C11
A    3
N02
A    4
C02
A    5
N01
A    6
C03
A    7
C04
A    8
C05
A    9
C06
A   10
C07
A   11
C08
A   12
C09
A   13
O12
A   14
C21
A   15
C26
A   16
C22
A   17
C23
A   18
C29
A   19
N30
A   20
C31
A   21
C24
A   22
C25
A   23
C27
A   24
C28
M  END
>  <Id>  (167) 
5UNS_8J4_B_803

>  <ChainId>  (167) 
B

>  <AsymId>  (167) 
J

>  <SeqNum>  (167) 
803

>  <Name>  (167) 
7-({3-ethyl-5-[(methylamino)methyl]phenoxy}methyl)quinolin-2-amine

>  <SystematicName>  (167) 
7-[[3-ethyl-5-(methylaminomethyl)phenoxy]methyl]quinolin-2-amine

>  <Synonyms>  (167) 


>  <Type>  (167) 
NON-POLYMER

>  <Formula>  (167) 
C20 H23 N3 O

>  <ObservedFormula>  (167) 
C20 N3 O

>  <MolecularWeight>  (167) 
321.416

>  <ModifiedDate>  (167) 
2017-04-28

>  <Parent>  (167) 


>  <OneLetterCode>  (167) 


>  <SubcomponentList>  (167) 


>  <AmbiguousFlag>  (167) 
N

>  <InsertionCode>  (167) 


>  <InstanceId>  (167) 
5UNS_8J4_B_803

>  <ChemCompId>  (167) 
8J4

>  <PdbId>  (167) 
5UNS

>  <ResidueNumber>  (167) 
803

>  <InChI>  (167) 
InChI=1S/C20H23N3O/c1-3-14-8-16(12-22-2)10-18(9-14)24-13-15-4-5-17-6-7-20(21)23-19(17)11-15/h4-11,22H,3,12-13H2,1-2H3,(H2,21,23)

>  <InChIKey>  (167) 
OCTNSHZDWVJCQD-UHFFFAOYSA-N

>  <SMILES>  (167) 
CCc1cc(cc(c1)OCc2ccc3ccc(nc3c2)N)CNC

>  <MissingHeavyAtoms>  (167) 
0

>  <Model>  (167) 
1

>  <AltIds>  (167) 


>  <pKI>  (167) 
7.27

>  <ChemblID>  (167) 
-

>  <standardized_canonical_smiles>  (167) 
CCc1cc(CNC)cc(OCc2ccc3ccc(N)nc3c2)c1

$$$$
4GQE_6KJ_B_803
     RDKit          3D

 17 16  0  0  0  0  0  0  0  0999 V2000
   17.9120   -2.3940   56.9210 O   0  0  0  0  0  0  0  0  0  0  0  0
   17.7480   -1.5440   57.8110 C   0  0  0  0  0  0  0  0  0  0  0  0
   18.3830   -1.6880   58.8730 O   0  0  0  0  0  0  0  0  0  0  0  0
   16.8100   -0.3510   57.5520 C   0  0  0  0  0  0  0  0  0  0  0  0
   16.3540   -0.4600   56.1680 N   0  0  0  0  0  0  0  0  0  0  0  0
   15.5870   -0.2620   58.5030 C   0  0  0  0  0  0  0  0  0  0  0  0
   14.8270    1.0770   58.3950 C   0  0  0  0  0  0  0  0  0  0  0  0
   13.3070    1.0010   58.6880 C   0  0  0  0  0  0  0  0  0  0  0  0
   12.7120   -0.3380   58.5810 N   0  0  0  0  0  0  0  0  0  0  0  0
   11.4790   -0.8040   58.9130 C   0  0  0  0  0  0  0  0  0  0  0  0
   11.0670   -1.9840   58.4460 N   0  0  0  0  0  0  0  0  0  0  0  0
   10.6240   -0.1610   59.7120 N   0  0  0  0  0  0  0  0  0  0  0  0
   10.8180    0.0200   60.9480 O   0  0  0  0  0  0  0  0  0  0  0  0
   10.9880    1.4030   61.3570 C   0  0  0  0  0  0  0  0  0  0  0  0
   10.8340    2.3350   60.1380 C   0  0  0  0  0  0  0  0  0  0  0  0
    9.8480    1.7630   62.2870 C   0  0  0  0  0  0  0  0  0  0  0  0
   12.2940    1.6150   62.1350 C   0  0  0  0  0  0  0  0  0  0  0  0
  2  1  2  0
  3  2  1  0
  4  2  1  0
  5  4  1  0
  6  4  1  0
  7  6  1  0
  8  7  1  0
  9  8  2  0
 10  9  1  0
 11 10  2  0
 12 10  1  0
 13 12  1  0
 14 13  1  0
 15 14  1  0
 16 14  1  0
 17 14  1  0
A    1
OA2
A    2
C
A    3
OA1
A    4
CA
A    5
N
A    6
CB
A    7
CG
A    8
CD
A    9
NE
A   10
CZ
A   11
NH2
A   12
NH1
A   13
OH
A   14
C1
A   15
C4
A   16
C3
A   17
C2
M  END
>  <Id>  (168) 
4GQE_6KJ_B_803

>  <ChainId>  (168) 
B

>  <AsymId>  (168) 
J

>  <SeqNum>  (168) 
803

>  <Name>  (168) 
(5E)-5-[(N-tert-butoxycarbamimidoyl)imino]-L-norvaline

>  <SystematicName>  (168) 
(2S,5E)-2-azanyl-5-[N-[(2-methylpropan-2-yl)oxy]carbamimidoyl]imino-pentanoic acid

>  <Synonyms>  (168) 


>  <Type>  (168) 
NON-POLYMER

>  <Formula>  (168) 
C10 H20 N4 O3

>  <ObservedFormula>  (168) 
C10 N4 O3

>  <MolecularWeight>  (168) 
244.291

>  <ModifiedDate>  (168) 
2013-05-10

>  <Parent>  (168) 


>  <OneLetterCode>  (168) 


>  <SubcomponentList>  (168) 


>  <AmbiguousFlag>  (168) 
N

>  <InsertionCode>  (168) 


>  <InstanceId>  (168) 
4GQE_6KJ_B_803

>  <ChemCompId>  (168) 
6KJ

>  <PdbId>  (168) 
4GQE

>  <ResidueNumber>  (168) 
803

>  <InChI>  (168) 
InChI=1S/C10H20N4O3/c1-10(2,3)17-14-9(12)13-6-4-5-7(11)8(15)16/h6-7H,4-5,11H2,1-3H3,(H2,12,14)(H,15,16)/b13-6+/t7-/m0/s1

>  <InChIKey>  (168) 
TUOBZAXIKVQKKU-PQHBYJLHSA-N

>  <SMILES>  (168) 
[H]/N=C(\NOC(C)(C)C)/N=C/CC[C@@H](C(=O)O)N

>  <MissingHeavyAtoms>  (168) 
0

>  <Model>  (168) 
1

>  <AltIds>  (168) 


>  <pKI>  (168) 
2.13

>  <ChemblID>  (168) 
-

>  <standardized_canonical_smiles>  (168) 
CC(C)(C)ONC(=N)/N=C/CC[C@H](N)C(=O)O

$$$$
3JT7_JM5_B_800
     RDKit          3D

 16 15  0  0  0  0  0  0  0  0999 V2000
   17.7020   -1.6450   57.6000 C   0  0  0  0  0  0  0  0  0  0  0  0
   16.3290   -0.4420   55.9640 N   0  0  0  0  0  0  0  0  0  0  0  0
   11.5350   -0.7210   58.7740 C   0  0  0  0  0  0  0  0  0  0  0  0
   10.8330    0.1060   59.5790 C   0  0  0  0  0  0  0  0  0  0  0  0
   10.4900    1.7680   59.0740 S   0  0  0  0  0  0  0  0  0  0  0  0
   10.8710    2.9050   60.3610 C   0  0  0  0  0  0  0  0  0  0  0  0
   10.9030    2.1560   61.6850 C   0  0  0  0  0  0  0  0  0  0  0  0
   12.3220    1.7750   62.0200 C   0  0  0  0  0  0  0  0  0  0  0  0
   16.8730   -0.4060   57.3090 C   0  0  0  0  0  0  0  0  0  0  0  0
   15.7330   -0.3150   58.3420 C   0  0  0  0  0  0  0  0  0  0  0  0
   13.4620    0.5930   58.7860 C   0  0  0  0  0  0  0  0  0  0  0  0
   12.8060   -0.4490   58.4150 N   0  0  0  0  0  0  0  0  0  0  0  0
   14.8460    0.9210   58.2380 C   0  0  0  0  0  0  0  0  0  0  0  0
   10.9420   -1.7630   58.3760 N   0  0  0  0  0  0  0  0  0  0  0  0
   17.8830   -2.5140   56.7300 O   0  0  0  0  0  0  0  0  0  0  0  0
   18.1830   -1.8220   58.7310 O   0  0  0  0  0  0  0  0  0  0  0  0
  9  1  1  0
 15  1  2  0
 16  1  1  0
  9  2  1  0
  4  3  1  0
 12  3  1  0
 14  3  2  0
  5  4  1  0
  6  5  1  0
  7  6  1  0
  8  7  1  0
 10  9  1  0
 13 10  1  0
 12 11  1  0
 13 11  1  0
A    1
C
A    2
N
A    3
C1
A    4
C2
A    5
S3
A    6
C4
A    7
C5
A    8
C6
A    9
CA
A   10
CB
A   11
CD
A   12
NE
A   13
CG
A   14
NH
A   15
OA1
A   16
OA2
M  END
>  <Id>  (169) 
3JT7_JM5_B_800

>  <ChainId>  (169) 
B

>  <AsymId>  (169) 
J

>  <SeqNum>  (169) 
800

>  <Name>  (169) 
N~5~-[2-(propylsulfanyl)ethanimidoyl]-L-ornithine

>  <SystematicName>  (169) 
(2S)-2-azanyl-5-(2-propylsulfanylethanimidoylamino)pentanoic acid

>  <Synonyms>  (169) 


>  <Type>  (169) 
NON-POLYMER

>  <Formula>  (169) 
C10 H21 N3 O2 S

>  <ObservedFormula>  (169) 
C10 S N3 O2

>  <MolecularWeight>  (169) 
247.358

>  <ModifiedDate>  (169) 
2011-06-04

>  <Parent>  (169) 


>  <OneLetterCode>  (169) 


>  <SubcomponentList>  (169) 


>  <AmbiguousFlag>  (169) 
N

>  <InsertionCode>  (169) 


>  <InstanceId>  (169) 
3JT7_JM5_B_800

>  <ChemCompId>  (169) 
JM5

>  <PdbId>  (169) 
3JT7

>  <ResidueNumber>  (169) 
800

>  <InChI>  (169) 
InChI=1S/C10H21N3O2S/c1-2-6-16-7-9(12)13-5-3-4-8(11)10(14)15/h8H,2-7,11H2,1H3,(H2,12,13)(H,14,15)/t8-/m0/s1

>  <InChIKey>  (169) 
RLVQEZKGBMYDBZ-QMMMGPOBSA-N

>  <SMILES>  (169) 
[H]/N=C(/CSCCC)\NCCC[C@@H](C(=O)O)N

>  <MissingHeavyAtoms>  (169) 
0

>  <Model>  (169) 
1

>  <AltIds>  (169) 


>  <pKI>  (169) 
4.23

>  <ChemblID>  (169) 
-

>  <standardized_canonical_smiles>  (169) 
CCCSCC(=N)NCCC[C@H](N)C(=O)O

$$$$
1QWC_14W_A_902
     RDKit          3D

 13 13  0  0  0  0  0  0  0  0999 V2000
    3.0400    2.4780   58.1060 C   0  0  0  0  0  0  0  0  0  0  0  0
    4.4170    2.2610   58.2130 C   0  0  0  0  0  0  0  0  0  0  0  0
    4.8600    1.1620   58.9560 C   0  0  0  0  0  0  0  0  0  0  0  0
    3.9460    0.3050   59.5710 C   0  0  0  0  0  0  0  0  0  0  0  0
    2.5750    0.5380   59.4460 C   0  0  0  0  0  0  0  0  0  0  0  0
    2.1060    1.6320   58.7120 C   0  0  0  0  0  0  0  0  0  0  0  0
    0.6310    1.9270   58.5910 C   0  0  0  0  0  0  0  0  0  0  0  0
   -0.0690    0.6740   58.4250 N   0  0  0  0  0  0  0  0  0  0  0  0
   -1.2960    0.3970   58.9010 C   0  0  0  0  0  0  0  0  0  0  0  0
   -1.7710    1.0950   60.1360 C   0  0  0  0  0  0  0  0  0  0  0  0
   -2.0630   -0.4460   58.3120 N   0  0  0  0  0  0  0  0  0  0  0  0
    5.3850    3.1980   57.5350 C   0  0  0  0  0  0  0  0  0  0  0  0
    4.6960    4.0320   56.5820 N   0  0  0  0  0  0  0  0  0  0  0  0
  2  1  2  0
  6  1  1  0
  3  2  1  0
 12  2  1  0
  4  3  2  0
  5  4  1  0
  6  5  2  0
  7  6  1  0
  8  7  1  0
  9  8  1  0
 10  9  1  0
 11  9  2  0
 13 12  1  0
A    1
C2
A    2
C3
A    3
C4
A    4
C5
A    5
C6
A    6
C1
A    7
C7
A    8
N8
A    9
C9
A   10
C10
A   11
N11
A   12
C12
A   13
N13
M  END
>  <Id>  (170) 
1QWC_14W_A_902

>  <ChainId>  (170) 
A

>  <AsymId>  (170) 
E

>  <SeqNum>  (170) 
902

>  <Name>  (170) 
N-(3-(AMINOMETHYL)BENZYL)ACETAMIDINE

>  <SystematicName>  (170) 
N-[[3-(aminomethyl)phenyl]methyl]ethanimidamide

>  <Synonyms>  (170) 


>  <Type>  (170) 
NON-POLYMER

>  <Formula>  (170) 
C10 H15 N3

>  <ObservedFormula>  (170) 
C10 N3

>  <MolecularWeight>  (170) 
177.246

>  <ModifiedDate>  (170) 
2011-06-04

>  <Parent>  (170) 


>  <OneLetterCode>  (170) 


>  <SubcomponentList>  (170) 


>  <AmbiguousFlag>  (170) 
N

>  <InsertionCode>  (170) 


>  <InstanceId>  (170) 
1QWC_14W_A_902

>  <ChemCompId>  (170) 
14W

>  <PdbId>  (170) 
1QWC

>  <ResidueNumber>  (170) 
902

>  <InChI>  (170) 
InChI=1S/C10H15N3/c1-8(12)13-7-10-4-2-3-9(5-10)6-11/h2-5H,6-7,11H2,1H3,(H2,12,13)

>  <InChIKey>  (170) 
RODUKNYOEVZQPR-UHFFFAOYSA-N

>  <SMILES>  (170) 
[H]/N=C(/C)\NCc1cccc(c1)CN

>  <MissingHeavyAtoms>  (170) 
0

>  <Model>  (170) 
1

>  <AltIds>  (170) 


>  <pKI>  (170) 
5.7

>  <ChemblID>  (170) 
-

>  <standardized_canonical_smiles>  (170) 
CC(=N)NCc1cccc(CN)c1

$$$$
4FVX_2KJ_B_803
     RDKit          3D

 15 14  0  0  0  0  0  0  0  0999 V2000
   17.8180   -2.2680   57.0320 O   0  0  0  0  0  0  0  0  0  0  0  0
   17.6280   -1.4510   57.9480 C   0  0  0  0  0  0  0  0  0  0  0  0
   18.1260   -1.6690   59.0580 O   0  0  0  0  0  0  0  0  0  0  0  0
   16.8080   -0.2150   57.7050 C   0  0  0  0  0  0  0  0  0  0  0  0
   16.3210   -0.2410   56.3320 N   0  0  0  0  0  0  0  0  0  0  0  0
   15.6160   -0.1680   58.6710 C   0  0  0  0  0  0  0  0  0  0  0  0
   14.9610    1.1950   58.5310 C   0  0  0  0  0  0  0  0  0  0  0  0
   13.5010    1.1310   58.9730 C   0  0  0  0  0  0  0  0  0  0  0  0
   12.7970   -0.0730   58.5360 N   0  0  0  0  0  0  0  0  0  0  0  0
   11.5790   -0.3350   59.0240 C   0  0  0  0  0  0  0  0  0  0  0  0
   11.0380   -1.4570   58.7970 N   0  0  0  0  0  0  0  0  0  0  0  0
   10.9680    0.6310   59.7240 N   0  0  0  0  0  0  0  0  0  0  0  0
   10.5190    0.4580   61.0750 O   0  0  0  0  0  0  0  0  0  0  0  0
   10.5140    1.5870   61.9890 C   0  0  0  0  0  0  0  0  0  0  0  0
   11.9140    1.8620   62.5220 C   0  0  0  0  0  0  0  0  0  0  0  0
  2  1  2  0
  3  2  1  0
  4  2  1  0
  5  4  1  0
  6  4  1  0
  7  6  1  0
  8  7  1  0
  9  8  1  0
 10  9  1  0
 11 10  2  0
 12 10  1  0
 13 12  1  0
 14 13  1  0
 15 14  1  0
A    1
OA2
A    2
C
A    3
OA1
A    4
CA
A    5
N
A    6
CB
A    7
CG
A    8
CD
A    9
NE
A   10
CZ
A   11
NH2
A   12
NH1
A   13
OH
A   14
C2
A   15
C1
M  END
>  <Id>  (171) 
4FVX_2KJ_B_803

>  <ChainId>  (171) 
B

>  <AsymId>  (171) 
J

>  <SeqNum>  (171) 
803

>  <Name>  (171) 
N~5~-(N-ethoxycarbamimidoyl)-L-ornithine

>  <SystematicName>  (171) 
(2S)-2-azanyl-5-[(N-ethoxycarbamimidoyl)amino]pentanoic acid

>  <Synonyms>  (171) 


>  <Type>  (171) 
NON-POLYMER

>  <Formula>  (171) 
C8 H18 N4 O3

>  <ObservedFormula>  (171) 
C8 N4 O3

>  <MolecularWeight>  (171) 
218.254

>  <ModifiedDate>  (171) 
2013-05-10

>  <Parent>  (171) 


>  <OneLetterCode>  (171) 


>  <SubcomponentList>  (171) 


>  <AmbiguousFlag>  (171) 
N

>  <InsertionCode>  (171) 


>  <InstanceId>  (171) 
4FVX_2KJ_B_803

>  <ChemCompId>  (171) 
2KJ

>  <PdbId>  (171) 
4FVX

>  <ResidueNumber>  (171) 
803

>  <InChI>  (171) 
InChI=1S/C8H18N4O3/c1-2-15-12-8(10)11-5-3-4-6(9)7(13)14/h6H,2-5,9H2,1H3,(H,13,14)(H3,10,11,12)/t6-/m0/s1

>  <InChIKey>  (171) 
RVVPNRVWAPOQMA-LURJTMIESA-N

>  <SMILES>  (171) 
[H]/N=C(\NCCC[C@@H](C(=O)O)N)/NOCC

>  <MissingHeavyAtoms>  (171) 
0

>  <Model>  (171) 
1

>  <AltIds>  (171) 


>  <pKI>  (171) 
4.59

>  <ChemblID>  (171) 
-

>  <standardized_canonical_smiles>  (171) 
CCONC(=N)NCCC[C@H](N)C(=O)O

$$$$
3JT4_JM8_B_800
     RDKit          3D

 16 15  0  0  0  0  0  0  0  0999 V2000
   17.7660   -1.5370   57.5950 C   0  0  0  0  0  0  0  0  0  0  0  0
   16.4520   -0.2190   56.0400 N   0  0  0  0  0  0  0  0  0  0  0  0
   11.7230   -0.9490   58.9280 C   0  0  0  0  0  0  0  0  0  0  0  0
   11.1180   -0.5390   60.0700 C   0  0  0  0  0  0  0  0  0  0  0  0
    9.8890    0.3180   59.9570 C   0  0  0  0  0  0  0  0  0  0  0  0
   10.2270    1.9410   59.2970 S   0  0  0  0  0  0  0  0  0  0  0  0
   10.5470    2.9710   60.6990 C   0  0  0  0  0  0  0  0  0  0  0  0
   11.3880    2.3000   61.7870 C   0  0  0  0  0  0  0  0  0  0  0  0
   16.9580   -0.2670   57.4130 C   0  0  0  0  0  0  0  0  0  0  0  0
   15.7750   -0.2360   58.4110 C   0  0  0  0  0  0  0  0  0  0  0  0
   13.5880    0.7800   59.0920 C   0  0  0  0  0  0  0  0  0  0  0  0
   12.8890   -0.3890   58.5310 N   0  0  0  0  0  0  0  0  0  0  0  0
   14.8910    1.0140   58.3100 C   0  0  0  0  0  0  0  0  0  0  0  0
   11.0990   -1.8980   58.2330 N   0  0  0  0  0  0  0  0  0  0  0  0
   18.3570   -1.7580   58.6700 O   0  0  0  0  0  0  0  0  0  0  0  0
   17.7980   -2.3670   56.6610 O   0  0  0  0  0  0  0  0  0  0  0  0
  9  1  1  0
 15  1  2  0
 16  1  1  0
  9  2  1  0
  4  3  1  0
 12  3  1  0
 14  3  2  0
  5  4  1  0
  6  5  1  0
  7  6  1  0
  8  7  1  0
 10  9  1  0
 13 10  1  0
 12 11  1  0
 13 11  1  0
A    1
C
A    2
N
A    3
C1
A    4
C2
A    5
C3
A    6
S4
A    7
C5
A    8
C6
A    9
CA
A   10
CB
A   11
CD
A   12
NE
A   13
CG
A   14
NH
A   15
OA1
A   16
OA2
M  END
>  <Id>  (172) 
3JT4_JM8_B_800

>  <ChainId>  (172) 
B

>  <AsymId>  (172) 
J

>  <SeqNum>  (172) 
800

>  <Name>  (172) 
N~5~-[(3-(ethylsulfanyl)propanimidoyl]-L-ornithine

>  <SystematicName>  (172) 
(2S)-2-azanyl-5-(3-ethylsulfanylpropanimidoylamino)pentanoic acid

>  <Synonyms>  (172) 


>  <Type>  (172) 
NON-POLYMER

>  <Formula>  (172) 
C10 H21 N3 O2 S

>  <ObservedFormula>  (172) 
C10 S N3 O2

>  <MolecularWeight>  (172) 
247.358

>  <ModifiedDate>  (172) 
2011-06-04

>  <Parent>  (172) 


>  <OneLetterCode>  (172) 


>  <SubcomponentList>  (172) 


>  <AmbiguousFlag>  (172) 
N

>  <InsertionCode>  (172) 


>  <InstanceId>  (172) 
3JT4_JM8_B_800

>  <ChemCompId>  (172) 
JM8

>  <PdbId>  (172) 
3JT4

>  <ResidueNumber>  (172) 
800

>  <InChI>  (172) 
InChI=1S/C10H21N3O2S/c1-2-16-7-5-9(12)13-6-3-4-8(11)10(14)15/h8H,2-7,11H2,1H3,(H2,12,13)(H,14,15)/t8-/m0/s1

>  <InChIKey>  (172) 
HAZXKSBWYNTCGM-QMMMGPOBSA-N

>  <SMILES>  (172) 
[H]/N=C(\CCSCC)/NCCC[C@@H](C(=O)O)N

>  <MissingHeavyAtoms>  (172) 
0

>  <Model>  (172) 
1

>  <AltIds>  (172) 


>  <pKI>  (172) 
4.48

>  <ChemblID>  (172) 
-

>  <standardized_canonical_smiles>  (172) 
CCSCCC(=N)NCCC[C@H](N)C(=O)O

$$$$
3Q99_JM8_B_800
     RDKit          3D

 16 15  0  0  0  0  0  0  0  0999 V2000
   17.7350   -1.5260   57.5490 C   0  0  0  0  0  0  0  0  0  0  0  0
   16.4890   -0.1590   55.9990 N   0  0  0  0  0  0  0  0  0  0  0  0
   11.6860   -0.8870   58.9870 C   0  0  0  0  0  0  0  0  0  0  0  0
   11.2410   -0.5740   60.2210 C   0  0  0  0  0  0  0  0  0  0  0  0
   10.0950    0.3930   60.3460 C   0  0  0  0  0  0  0  0  0  0  0  0
   10.3810    1.8200   59.3240 S   0  0  0  0  0  0  0  0  0  0  0  0
   10.7980    3.0360   60.5570 C   0  0  0  0  0  0  0  0  0  0  0  0
   11.6880    2.4870   61.6770 C   0  0  0  0  0  0  0  0  0  0  0  0
   16.9190   -0.2710   57.3890 C   0  0  0  0  0  0  0  0  0  0  0  0
   15.7120   -0.3780   58.3480 C   0  0  0  0  0  0  0  0  0  0  0  0
   13.6260    0.6960   59.1980 C   0  0  0  0  0  0  0  0  0  0  0  0
   12.7760   -0.2720   58.5090 N   0  0  0  0  0  0  0  0  0  0  0  0
   14.8560    0.8860   58.3090 C   0  0  0  0  0  0  0  0  0  0  0  0
   10.9960   -1.7850   58.2850 N   0  0  0  0  0  0  0  0  0  0  0  0
   18.3310   -1.7860   58.6040 O   0  0  0  0  0  0  0  0  0  0  0  0
   17.7860   -2.3110   56.5980 O   0  0  0  0  0  0  0  0  0  0  0  0
  9  1  1  0
 15  1  2  0
 16  1  1  0
  9  2  1  0
  4  3  1  0
 12  3  1  0
 14  3  2  0
  5  4  1  0
  6  5  1  0
  7  6  1  0
  8  7  1  0
 10  9  1  0
 13 10  1  0
 12 11  1  0
 13 11  1  0
A    1
C
A    2
N
A    3
C1
A    4
C2
A    5
C3
A    6
S4
A    7
C5
A    8
C6
A    9
CA
A   10
CB
A   11
CD
A   12
NE
A   13
CG
A   14
NH
A   15
OA1
A   16
OA2
M  END
>  <Id>  (173) 
3Q99_JM8_B_800

>  <ChainId>  (173) 
B

>  <AsymId>  (173) 
J

>  <SeqNum>  (173) 
800

>  <Name>  (173) 
N~5~-[(3-(ethylsulfanyl)propanimidoyl]-L-ornithine

>  <SystematicName>  (173) 
(2S)-2-azanyl-5-(3-ethylsulfanylpropanimidoylamino)pentanoic acid

>  <Synonyms>  (173) 


>  <Type>  (173) 
NON-POLYMER

>  <Formula>  (173) 
C10 H21 N3 O2 S

>  <ObservedFormula>  (173) 
C10 S N3 O2

>  <MolecularWeight>  (173) 
247.358

>  <ModifiedDate>  (173) 
2011-06-04

>  <Parent>  (173) 


>  <OneLetterCode>  (173) 


>  <SubcomponentList>  (173) 


>  <AmbiguousFlag>  (173) 
N

>  <InsertionCode>  (173) 


>  <InstanceId>  (173) 
3Q99_JM8_B_800

>  <ChemCompId>  (173) 
JM8

>  <PdbId>  (173) 
3Q99

>  <ResidueNumber>  (173) 
800

>  <InChI>  (173) 
InChI=1S/C10H21N3O2S/c1-2-16-7-5-9(12)13-6-3-4-8(11)10(14)15/h8H,2-7,11H2,1H3,(H2,12,13)(H,14,15)/t8-/m0/s1

>  <InChIKey>  (173) 
HAZXKSBWYNTCGM-QMMMGPOBSA-N

>  <SMILES>  (173) 
[H]/N=C(\CCSCC)/NCCC[C@@H](C(=O)O)N

>  <MissingHeavyAtoms>  (173) 
0

>  <Model>  (173) 
1

>  <AltIds>  (173) 


>  <pKI>  (173) 
4.48

>  <ChemblID>  (173) 
-

>  <standardized_canonical_smiles>  (173) 
CCSCCC(=N)NCCC[C@H](N)C(=O)O

$$$$
3Q9A_JM7_B_800
     RDKit          3D

 15 14  0  0  0  0  0  0  0  0999 V2000
   17.6140   -1.5590   57.6620 C   0  0  0  0  0  0  0  0  0  0  0  0
   16.2700   -0.3640   55.9610 N   0  0  0  0  0  0  0  0  0  0  0  0
   11.4030   -0.7000   58.7520 C   0  0  0  0  0  0  0  0  0  0  0  0
   10.6810    0.0030   59.9170 C   0  0  0  0  0  0  0  0  0  0  0  0
   10.3830    1.7210   59.5760 S   0  0  0  0  0  0  0  0  0  0  0  0
   10.1500    2.3060   61.2360 C   0  0  0  0  0  0  0  0  0  0  0  0
   11.4640    2.2770   62.0400 C   0  0  0  0  0  0  0  0  0  0  0  0
   16.7510   -0.3730   57.3550 C   0  0  0  0  0  0  0  0  0  0  0  0
   15.5720   -0.4070   58.3340 C   0  0  0  0  0  0  0  0  0  0  0  0
   13.4340    0.7820   58.9970 C   0  0  0  0  0  0  0  0  0  0  0  0
   12.6170   -0.2230   58.2750 N   0  0  0  0  0  0  0  0  0  0  0  0
   14.8140    0.9200   58.3150 C   0  0  0  0  0  0  0  0  0  0  0  0
   10.8110   -1.7330   58.2720 N   0  0  0  0  0  0  0  0  0  0  0  0
   18.2670   -1.6130   58.7250 O   0  0  0  0  0  0  0  0  0  0  0  0
   17.6610   -2.4980   56.8450 O   0  0  0  0  0  0  0  0  0  0  0  0
  8  1  1  0
 14  1  2  0
 15  1  1  0
  8  2  1  0
  4  3  1  0
 11  3  1  0
 13  3  2  0
  5  4  1  0
  6  5  1  0
  7  6  1  0
  9  8  1  0
 12  9  1  0
 11 10  1  0
 12 10  1  0
A    1
C
A    2
N
A    3
C1
A    4
C2
A    5
S3
A    6
C4
A    7
C5
A    8
CA
A    9
CB
A   10
CD
A   11
NE
A   12
CG
A   13
NH
A   14
OA1
A   15
OA2
M  END
>  <Id>  (174) 
3Q9A_JM7_B_800

>  <ChainId>  (174) 
B

>  <AsymId>  (174) 
K

>  <SeqNum>  (174) 
800

>  <Name>  (174) 
N~5~-[2-(ethylsulfanyl)ethanimidoyl]-L-ornithine

>  <SystematicName>  (174) 
(2S)-2-azanyl-5-(2-ethylsulfanylethanimidoylamino)pentanoic acid

>  <Synonyms>  (174) 


>  <Type>  (174) 
NON-POLYMER

>  <Formula>  (174) 
C9 H19 N3 O2 S

>  <ObservedFormula>  (174) 
C9 S N3 O2

>  <MolecularWeight>  (174) 
233.331

>  <ModifiedDate>  (174) 
2011-11-17

>  <Parent>  (174) 


>  <OneLetterCode>  (174) 


>  <SubcomponentList>  (174) 


>  <AmbiguousFlag>  (174) 
N

>  <InsertionCode>  (174) 


>  <InstanceId>  (174) 
3Q9A_JM7_B_800

>  <ChemCompId>  (174) 
JM7

>  <PdbId>  (174) 
3Q9A

>  <ResidueNumber>  (174) 
800

>  <InChI>  (174) 
InChI=1S/C9H19N3O2S/c1-2-15-6-8(11)12-5-3-4-7(10)9(13)14/h7H,2-6,10H2,1H3,(H2,11,12)(H,13,14)/t7-/m0/s1

>  <InChIKey>  (174) 
GKZCWWBQARDOFD-ZETCQYMHSA-N

>  <SMILES>  (174) 
[H]/N=C(\CSCC)/NCCC[C@@H](C(=O)O)N

>  <MissingHeavyAtoms>  (174) 
0

>  <Model>  (174) 
1

>  <AltIds>  (174) 


>  <pKI>  (174) 
5.07

>  <ChemblID>  (174) 
-

>  <standardized_canonical_smiles>  (174) 
CCSCC(=N)NCCC[C@H](N)C(=O)O

$$$$
3JT5_JM7_B_800
     RDKit          3D

 15 14  0  0  0  0  0  0  0  0999 V2000
   17.6640   -1.5470   57.6030 C   0  0  0  0  0  0  0  0  0  0  0  0
   16.3150   -0.2300   56.0280 N   0  0  0  0  0  0  0  0  0  0  0  0
   11.4400   -0.4910   58.7610 C   0  0  0  0  0  0  0  0  0  0  0  0
   10.6520    0.1650   59.9090 C   0  0  0  0  0  0  0  0  0  0  0  0
   10.4810    1.9110   59.5720 S   0  0  0  0  0  0  0  0  0  0  0  0
   10.4940    2.5950   61.2170 C   0  0  0  0  0  0  0  0  0  0  0  0
   11.7700    2.2700   62.0160 C   0  0  0  0  0  0  0  0  0  0  0  0
   16.9030   -0.2560   57.3660 C   0  0  0  0  0  0  0  0  0  0  0  0
   15.7530   -0.1520   58.3820 C   0  0  0  0  0  0  0  0  0  0  0  0
   13.5610    0.8690   59.0590 C   0  0  0  0  0  0  0  0  0  0  0  0
   12.5960    0.0800   58.2750 N   0  0  0  0  0  0  0  0  0  0  0  0
   14.8430    1.0690   58.2230 C   0  0  0  0  0  0  0  0  0  0  0  0
   10.9690   -1.5760   58.2670 N   0  0  0  0  0  0  0  0  0  0  0  0
   18.2340   -1.7780   58.7040 O   0  0  0  0  0  0  0  0  0  0  0  0
   17.7020   -2.3960   56.6790 O   0  0  0  0  0  0  0  0  0  0  0  0
  8  1  1  0
 14  1  2  0
 15  1  1  0
  8  2  1  0
  4  3  1  0
 11  3  1  0
 13  3  2  0
  5  4  1  0
  6  5  1  0
  7  6  1  0
  9  8  1  0
 12  9  1  0
 11 10  1  0
 12 10  1  0
A    1
C
A    2
N
A    3
C1
A    4
C2
A    5
S3
A    6
C4
A    7
C5
A    8
CA
A    9
CB
A   10
CD
A   11
NE
A   12
CG
A   13
NH
A   14
OA1
A   15
OA2
M  END
>  <Id>  (175) 
3JT5_JM7_B_800

>  <ChainId>  (175) 
B

>  <AsymId>  (175) 
K

>  <SeqNum>  (175) 
800

>  <Name>  (175) 
N~5~-[2-(ethylsulfanyl)ethanimidoyl]-L-ornithine

>  <SystematicName>  (175) 
(2S)-2-azanyl-5-(2-ethylsulfanylethanimidoylamino)pentanoic acid

>  <Synonyms>  (175) 


>  <Type>  (175) 
NON-POLYMER

>  <Formula>  (175) 
C9 H19 N3 O2 S

>  <ObservedFormula>  (175) 
C9 S N3 O2

>  <MolecularWeight>  (175) 
233.331

>  <ModifiedDate>  (175) 
2011-11-17

>  <Parent>  (175) 


>  <OneLetterCode>  (175) 


>  <SubcomponentList>  (175) 


>  <AmbiguousFlag>  (175) 
N

>  <InsertionCode>  (175) 


>  <InstanceId>  (175) 
3JT5_JM7_B_800

>  <ChemCompId>  (175) 
JM7

>  <PdbId>  (175) 
3JT5

>  <ResidueNumber>  (175) 
800

>  <InChI>  (175) 
InChI=1S/C9H19N3O2S/c1-2-15-6-8(11)12-5-3-4-7(10)9(13)14/h7H,2-6,10H2,1H3,(H2,11,12)(H,13,14)/t7-/m0/s1

>  <InChIKey>  (175) 
GKZCWWBQARDOFD-ZETCQYMHSA-N

>  <SMILES>  (175) 
[H]/N=C(\CSCC)/NCCC[C@@H](C(=O)O)N

>  <MissingHeavyAtoms>  (175) 
0

>  <Model>  (175) 
1

>  <AltIds>  (175) 


>  <pKI>  (175) 
5.07

>  <ChemblID>  (175) 
-

>  <standardized_canonical_smiles>  (175) 
CCSCC(=N)NCCC[C@H](N)C(=O)O

$$$$
3JT9_JM7_B_800
     RDKit          3D

 15 14  0  0  0  0  0  0  0  0999 V2000
   17.6670   -1.5580   57.7580 C   0  0  0  0  0  0  0  0  0  0  0  0
   16.4160   -0.2980   56.1310 N   0  0  0  0  0  0  0  0  0  0  0  0
   11.3870   -0.6710   58.7620 C   0  0  0  0  0  0  0  0  0  0  0  0
   10.6480    0.0910   59.8870 C   0  0  0  0  0  0  0  0  0  0  0  0
   10.5350    1.8570   59.5220 S   0  0  0  0  0  0  0  0  0  0  0  0
   10.6120    2.6280   61.1440 C   0  0  0  0  0  0  0  0  0  0  0  0
   11.7620    2.1160   62.0480 C   0  0  0  0  0  0  0  0  0  0  0  0
   16.8430   -0.3130   57.5190 C   0  0  0  0  0  0  0  0  0  0  0  0
   15.6060   -0.2880   58.4280 C   0  0  0  0  0  0  0  0  0  0  0  0
   13.3840    0.8430   58.8950 C   0  0  0  0  0  0  0  0  0  0  0  0
   12.6060   -0.2390   58.2690 N   0  0  0  0  0  0  0  0  0  0  0  0
   14.7860    0.9810   58.2290 C   0  0  0  0  0  0  0  0  0  0  0  0
   10.8320   -1.7310   58.3210 N   0  0  0  0  0  0  0  0  0  0  0  0
   18.1540   -1.7570   58.8820 O   0  0  0  0  0  0  0  0  0  0  0  0
   17.8570   -2.4010   56.8440 O   0  0  0  0  0  0  0  0  0  0  0  0
  8  1  1  0
 14  1  2  0
 15  1  1  0
  8  2  1  0
  4  3  1  0
 11  3  1  0
 13  3  2  0
  5  4  1  0
  6  5  1  0
  7  6  1  0
  9  8  1  0
 12  9  1  0
 11 10  1  0
 12 10  1  0
A    1
C
A    2
N
A    3
C1
A    4
C2
A    5
S3
A    6
C4
A    7
C5
A    8
CA
A    9
CB
A   10
CD
A   11
NE
A   12
CG
A   13
NH
A   14
OA1
A   15
OA2
M  END
>  <Id>  (176) 
3JT9_JM7_B_800

>  <ChainId>  (176) 
B

>  <AsymId>  (176) 
K

>  <SeqNum>  (176) 
800

>  <Name>  (176) 
N~5~-[2-(ethylsulfanyl)ethanimidoyl]-L-ornithine

>  <SystematicName>  (176) 
(2S)-2-azanyl-5-(2-ethylsulfanylethanimidoylamino)pentanoic acid

>  <Synonyms>  (176) 


>  <Type>  (176) 
NON-POLYMER

>  <Formula>  (176) 
C9 H19 N3 O2 S

>  <ObservedFormula>  (176) 
C9 S N3 O2

>  <MolecularWeight>  (176) 
233.331

>  <ModifiedDate>  (176) 
2011-11-17

>  <Parent>  (176) 


>  <OneLetterCode>  (176) 


>  <SubcomponentList>  (176) 


>  <AmbiguousFlag>  (176) 
N

>  <InsertionCode>  (176) 


>  <InstanceId>  (176) 
3JT9_JM7_B_800

>  <ChemCompId>  (176) 
JM7

>  <PdbId>  (176) 
3JT9

>  <ResidueNumber>  (176) 
800

>  <InChI>  (176) 
InChI=1S/C9H19N3O2S/c1-2-15-6-8(11)12-5-3-4-7(10)9(13)14/h7H,2-6,10H2,1H3,(H2,11,12)(H,13,14)/t7-/m0/s1

>  <InChIKey>  (176) 
GKZCWWBQARDOFD-ZETCQYMHSA-N

>  <SMILES>  (176) 
[H]/N=C(\CSCC)/NCCC[C@@H](C(=O)O)N

>  <MissingHeavyAtoms>  (176) 
0

>  <Model>  (176) 
1

>  <AltIds>  (176) 


>  <pKI>  (176) 
5.07

>  <ChemblID>  (176) 
-

>  <standardized_canonical_smiles>  (176) 
CCSCC(=N)NCCC[C@H](N)C(=O)O

$$$$
1K2T_PTU_B_2810
     RDKit          3D

 12 12  0  0  0  0  0  0  0  0999 V2000
   11.0100   -1.5470   58.7770 N   0  0  0  0  0  0  0  0  0  0  0  0
   11.4270   -0.4240   59.3390 C   0  0  0  0  0  0  0  0  0  0  0  0
   10.4250    0.3580   60.6240 S   0  0  0  0  0  0  0  0  0  0  0  0
   12.5910    0.0800   58.9060 N   0  0  0  0  0  0  0  0  0  0  0  0
   13.1330    1.3400   58.8050 C   0  0  0  0  0  0  0  0  0  0  0  0
   14.5540    1.4410   58.6950 C   0  0  0  0  0  0  0  0  0  0  0  0
   15.1900    2.7270   58.5850 C   0  0  0  0  0  0  0  0  0  0  0  0
   14.4130    3.9150   58.5910 C   0  0  0  0  0  0  0  0  0  0  0  0
   13.0110    3.8290   58.7020 C   0  0  0  0  0  0  0  0  0  0  0  0
   12.3660    2.5690   58.8080 C   0  0  0  0  0  0  0  0  0  0  0  0
   11.4540    0.9660   61.9910 C   0  0  0  0  0  0  0  0  0  0  0  0
   10.9110    2.3080   62.4720 C   0  0  0  0  0  0  0  0  0  0  0  0
  2  1  1  0
  3  2  1  0
  4  2  2  0
 11  3  1  0
  5  4  1  0
  6  5  2  0
 10  5  1  0
  7  6  1  0
  8  7  2  0
  9  8  1  0
 10  9  2  0
 12 11  1  0
A    1
N1
A    2
C
A    3
S
A    4
N2
A    5
C1
A    6
C2
A    7
C3
A    8
C4
A    9
C5
A   10
C6
A   11
C1'
A   12
C2'
M  END
>  <Id>  (177) 
1K2T_PTU_B_2810

>  <ChainId>  (177) 
B

>  <AsymId>  (177) 
K

>  <SeqNum>  (177) 
2810

>  <Name>  (177) 
2-ETHYL-1-PHENYL-ISOTHIOUREA

>  <SystematicName>  (177) 
1-ethylsulfanyl-N'-phenyl-methanimidamide

>  <Synonyms>  (177) 
S-ETHYL-N-PHENYL-ISOTHIOUREA

>  <Type>  (177) 
NON-POLYMER

>  <Formula>  (177) 
C9 H12 N2 S

>  <ObservedFormula>  (177) 
C9 S N2

>  <MolecularWeight>  (177) 
180.27

>  <ModifiedDate>  (177) 
2011-06-04

>  <Parent>  (177) 


>  <OneLetterCode>  (177) 


>  <SubcomponentList>  (177) 


>  <AmbiguousFlag>  (177) 
N

>  <InsertionCode>  (177) 


>  <InstanceId>  (177) 
1K2T_PTU_B_2810

>  <ChemCompId>  (177) 
PTU

>  <PdbId>  (177) 
1K2T

>  <ResidueNumber>  (177) 
2810

>  <InChI>  (177) 
InChI=1S/C9H12N2S/c1-2-12-9(10)11-8-6-4-3-5-7-8/h3-7H,2H2,1H3,(H2,10,11)

>  <InChIKey>  (177) 
LAXNJIWNBHHMDO-UHFFFAOYSA-N

>  <SMILES>  (177) 
CCSC(=Nc1ccccc1)N

>  <MissingHeavyAtoms>  (177) 
0

>  <Model>  (177) 
1

>  <AltIds>  (177) 


>  <pKI>  (177) 
6.92

>  <ChemblID>  (177) 
-

>  <standardized_canonical_smiles>  (177) 
CCS/C(N)=N\c1ccccc1

$$$$
1K2U_TFM_B_2820
     RDKit          3D

 16 16  0  0  0  0  0  0  0  0999 V2000
   10.8240   -1.5980   58.6620 N   0  0  0  0  0  0  0  0  0  0  0  0
   11.3240   -0.5550   59.2830 C   0  0  0  0  0  0  0  0  0  0  0  0
   10.3480    0.3220   60.5240 S   0  0  0  0  0  0  0  0  0  0  0  0
   12.5530   -0.1630   59.0100 N   0  0  0  0  0  0  0  0  0  0  0  0
   13.0940    1.1340   58.7510 C   0  0  0  0  0  0  0  0  0  0  0  0
   12.2960    2.3230   58.7400 C   0  0  0  0  0  0  0  0  0  0  0  0
   12.8920    3.5820   58.4910 C   0  0  0  0  0  0  0  0  0  0  0  0
   14.2910    3.6800   58.2380 C   0  0  0  0  0  0  0  0  0  0  0  0
   15.0940    2.4920   58.2460 C   0  0  0  0  0  0  0  0  0  0  0  0
   14.4930    1.2210   58.4970 C   0  0  0  0  0  0  0  0  0  0  0  0
   11.3510    0.7570   61.9640 C   0  0  0  0  0  0  0  0  0  0  0  0
   11.1110    2.2240   62.3390 C   0  0  0  0  0  0  0  0  0  0  0  0
   14.9260    5.0710   57.9770 C   0  0  0  0  0  0  0  0  0  0  0  0
   16.2680    5.0480   58.3080 F   0  0  0  0  0  0  0  0  0  0  0  0
   14.7900    5.4000   56.6550 F   0  0  0  0  0  0  0  0  0  0  0  0
   14.2840    6.0160   58.7490 F   0  0  0  0  0  0  0  0  0  0  0  0
  2  1  1  0
  3  2  1  0
  4  2  2  0
 11  3  1  0
  5  4  1  0
  6  5  2  0
 10  5  1  0
  7  6  1  0
  8  7  2  0
  9  8  1  0
 13  8  1  0
 10  9  2  0
 12 11  1  0
 14 13  1  0
 15 13  1  0
 16 13  1  0
A    1
N1
A    2
C
A    3
S
A    4
N2
A    5
C1
A    6
C2
A    7
C3
A    8
C4
A    9
C5
A   10
C6
A   11
C1'
A   12
C2'
A   13
CM
A   14
F1
A   15
F2
A   16
F3
M  END
>  <Id>  (178) 
1K2U_TFM_B_2820

>  <ChainId>  (178) 
B

>  <AsymId>  (178) 
K

>  <SeqNum>  (178) 
2820

>  <Name>  (178) 
S-ETHYL-N-[4-(TRIFLUOROMETHYL)PHENYL]ISOTHIOUREA

>  <SystematicName>  (178) 
1-ethylsulfanyl-N'-[4-(trifluoromethyl)phenyl]methanimidamide

>  <Synonyms>  (178) 


>  <Type>  (178) 
NON-POLYMER

>  <Formula>  (178) 
C10 H11 F3 N2 S

>  <ObservedFormula>  (178) 
C10 S F3 N2

>  <MolecularWeight>  (178) 
248.268

>  <ModifiedDate>  (178) 
2011-06-04

>  <Parent>  (178) 


>  <OneLetterCode>  (178) 


>  <SubcomponentList>  (178) 


>  <AmbiguousFlag>  (178) 
N

>  <InsertionCode>  (178) 


>  <InstanceId>  (178) 
1K2U_TFM_B_2820

>  <ChemCompId>  (178) 
TFM

>  <PdbId>  (178) 
1K2U

>  <ResidueNumber>  (178) 
2820

>  <InChI>  (178) 
InChI=1S/C10H11F3N2S/c1-2-16-9(14)15-8-5-3-7(4-6-8)10(11,12)13/h3-6H,2H2,1H3,(H2,14,15)

>  <InChIKey>  (178) 
LCMOXIFARISMOH-UHFFFAOYSA-N

>  <SMILES>  (178) 
CCSC(=Nc1ccc(cc1)C(F)(F)F)N

>  <MissingHeavyAtoms>  (178) 
0

>  <Model>  (178) 
1

>  <AltIds>  (178) 


>  <pKI>  (178) 
6.49

>  <ChemblID>  (178) 
-

>  <standardized_canonical_smiles>  (178) 
CCS/C(N)=N\c1ccc(C(F)(F)F)cc1

$$$$
6AUW_W80_B_803
     RDKit          3D

 25 27  0  0  0  0  0  0  0  0999 V2000
   10.8510   -2.0530   58.1590 N   0  0  0  0  0  0  0  0  0  0  0  0
   11.3630   -0.8780   58.6040 C   0  0  0  0  0  0  0  0  0  0  0  0
   10.7740   -0.2290   59.6880 C   0  0  0  0  0  0  0  0  0  0  0  0
   11.3120    0.9660   60.1420 C   0  0  0  0  0  0  0  0  0  0  0  0
   12.4270    1.4960   59.5000 C   0  0  0  0  0  0  0  0  0  0  0  0
   10.6740    1.6700   61.3220 C   0  0  0  0  0  0  0  0  0  0  0  0
   12.4490   -0.3410   58.0080 N   0  0  0  0  0  0  0  0  0  0  0  0
   12.9970    0.8300   58.4150 C   0  0  0  0  0  0  0  0  0  0  0  0
   14.2290    1.3820   57.7080 C   0  0  0  0  0  0  0  0  0  0  0  0
   14.1010    2.8860   57.4800 C   0  0  0  0  0  0  0  0  0  0  0  0
   15.4170    3.6450   57.3580 C   0  0  0  0  0  0  0  0  0  0  0  0
   15.4010    4.9870   57.7340 C   0  0  0  0  0  0  0  0  0  0  0  0
   16.4890    5.7600   57.6780 N   0  0  0  0  0  0  0  0  0  0  0  0
   17.6440    5.2570   57.2460 C   0  0  0  0  0  0  0  0  0  0  0  0
   16.6210    3.0900   56.9090 C   0  0  0  0  0  0  0  0  0  0  0  0
   17.7460    3.9240   56.8540 C   0  0  0  0  0  0  0  0  0  0  0  0
   19.0920    3.4830   56.3890 C   0  0  0  0  0  0  0  0  0  0  0  0
   19.5060    2.1540   56.4110 C   0  0  0  0  0  0  0  0  0  0  0  0
   19.9600    4.4710   55.9280 C   0  0  0  0  0  0  0  0  0  0  0  0
   21.2320    4.1480   55.4780 C   0  0  0  0  0  0  0  0  0  0  0  0
   21.6510    2.8220   55.4940 C   0  0  0  0  0  0  0  0  0  0  0  0
   20.7860    1.8290   55.9600 C   0  0  0  0  0  0  0  0  0  0  0  0
   23.0400    2.4630   55.0030 C   0  0  0  0  0  0  0  0  0  0  0  0
   23.6020    3.5320   54.1550 N   0  0  0  0  0  0  0  0  0  0  0  0
   23.2250    3.3150   52.7480 C   0  0  0  0  0  0  0  0  0  0  0  0
  2  1  1  0
  3  2  2  0
  7  2  1  0
  4  3  1  0
  5  4  2  0
  6  4  1  0
  8  5  1  0
  8  7  2  0
  9  8  1  0
 10  9  1  0
 11 10  1  0
 12 11  2  0
 15 11  1  0
 13 12  1  0
 14 13  2  0
 16 14  1  0
 16 15  2  0
 17 16  1  0
 18 17  2  0
 19 17  1  0
 22 18  1  0
 20 19  2  0
 21 20  1  0
 22 21  2  0
 23 21  1  0
 24 23  1  0
 25 24  1  0
A    1
N02
A    2
C02
A    3
C03
A    4
C04
A    5
C05
A    6
C07
A    7
N01
A    8
C06
A    9
C08
A   10
C09
A   11
C13
A   12
C12
A   13
N11
A   14
C16
A   15
C14
A   16
C15
A   17
C21
A   18
C26
A   19
C22
A   20
C23
A   21
C24
A   22
C25
A   23
C27
A   24
N28
A   25
C29
M  END
>  <Id>  (179) 
6AUW_W80_B_803

>  <ChainId>  (179) 
B

>  <AsymId>  (179) 
J

>  <SeqNum>  (179) 
803

>  <Name>  (179) 
4-methyl-6-[2-(5-{4-[(methylamino)methyl]phenyl}pyridin-3-yl)ethyl]pyridin-2-amine

>  <SystematicName>  (179) 
4-methyl-6-[2-[5-[4-(methylaminomethyl)phenyl]pyridin-3-yl]ethyl]pyridin-2-amine

>  <Synonyms>  (179) 


>  <Type>  (179) 
NON-POLYMER

>  <Formula>  (179) 
C21 H24 N4

>  <ObservedFormula>  (179) 
C21 N4

>  <MolecularWeight>  (179) 
332.442

>  <ModifiedDate>  (179) 
2018-07-06

>  <Parent>  (179) 


>  <OneLetterCode>  (179) 


>  <SubcomponentList>  (179) 


>  <AmbiguousFlag>  (179) 
N

>  <InsertionCode>  (179) 


>  <InstanceId>  (179) 
6AUW_W80_B_803

>  <ChemCompId>  (179) 
W80

>  <PdbId>  (179) 
6AUW

>  <ResidueNumber>  (179) 
803

>  <InChI>  (179) 
InChI=1S/C21H24N4/c1-15-9-20(25-21(22)10-15)8-5-17-11-19(14-24-13-17)18-6-3-16(4-7-18)12-23-2/h3-4,6-7,9-11,13-14,23H,5,8,12H2,1-2H3,(H2,22,25)

>  <InChIKey>  (179) 
DWEUCJPXVJGNQN-UHFFFAOYSA-N

>  <SMILES>  (179) 
Cc1cc(nc(c1)N)CCc2cc(cnc2)c3ccc(cc3)CNC

>  <MissingHeavyAtoms>  (179) 
0

>  <Model>  (179) 
1

>  <AltIds>  (179) 


>  <pKI>  (179) 
7.24

>  <ChemblID>  (179) 
-

>  <standardized_canonical_smiles>  (179) 
CNCc1ccc(-c2cncc(CCc3cc(C)cc(N)n3)c2)cc1

$$$$
6AUX_W82_B_803
     RDKit          3D

 26 28  0  0  0  0  0  0  0  0999 V2000
   11.4980   -0.8380   58.8940 C   0  0  0  0  0  0  0  0  0  0  0  0
   11.4720    0.8810   60.5800 C   0  0  0  0  0  0  0  0  0  0  0  0
   12.7130    1.3010   60.1200 C   0  0  0  0  0  0  0  0  0  0  0  0
   13.3270    0.6530   59.0530 C   0  0  0  0  0  0  0  0  0  0  0  0
   10.8150    1.6030   61.7290 C   0  0  0  0  0  0  0  0  0  0  0  0
   14.6930    1.0940   58.5520 C   0  0  0  0  0  0  0  0  0  0  0  0
   14.5780    3.4200   57.6980 C   0  0  0  0  0  0  0  0  0  0  0  0
   13.4020    3.9400   58.2310 C   0  0  0  0  0  0  0  0  0  0  0  0
   10.8510   -0.2040   59.9690 C   0  0  0  0  0  0  0  0  0  0  0  0
   14.5980    1.9620   57.2980 C   0  0  0  0  0  0  0  0  0  0  0  0
   13.3540    5.2700   58.6340 C   0  0  0  0  0  0  0  0  0  0  0  0
   14.4770    6.0820   58.5010 C   0  0  0  0  0  0  0  0  0  0  0  0
   15.6530    5.5750   57.9610 C   0  0  0  0  0  0  0  0  0  0  0  0
   15.7100    4.2340   57.5620 C   0  0  0  0  0  0  0  0  0  0  0  0
   16.8150    6.5050   57.8450 C   0  0  0  0  0  0  0  0  0  0  0  0
   17.0080    7.4980   58.8060 C   0  0  0  0  0  0  0  0  0  0  0  0
   18.0800    8.3800   58.7100 C   0  0  0  0  0  0  0  0  0  0  0  0
   18.9600    8.2820   57.6390 C   0  0  0  0  0  0  0  0  0  0  0  0
   18.7600    7.3010   56.6730 C   0  0  0  0  0  0  0  0  0  0  0  0
   17.6910    6.4160   56.7700 C   0  0  0  0  0  0  0  0  0  0  0  0
   19.6990    7.1800   55.5010 C   0  0  0  0  0  0  0  0  0  0  0  0
   19.7470    6.4160   53.2460 C   0  0  0  0  0  0  0  0  0  0  0  0
   12.2220    5.7770   59.1530 F   0  0  0  0  0  0  0  0  0  0  0  0
   12.7050   -0.4040   58.4820 N   0  0  0  0  0  0  0  0  0  0  0  0
   10.9470   -1.9030   58.2660 N   0  0  0  0  0  0  0  0  0  0  0  0
   19.0930    6.2420   54.5470 N   0  0  0  0  0  0  0  0  0  0  0  0
  9  1  2  0
 24  1  1  0
 25  1  1  0
  3  2  2  0
  5  2  1  0
  9  2  1  0
  4  3  1  0
  6  4  1  0
 24  4  2  0
 10  6  1  0
  8  7  2  0
 10  7  1  0
 14  7  1  0
 11  8  1  0
 12 11  2  0
 23 11  1  0
 13 12  1  0
 14 13  2  0
 15 13  1  0
 16 15  2  0
 20 15  1  0
 17 16  1  0
 18 17  2  0
 19 18  1  0
 20 19  2  0
 21 19  1  0
 26 21  1  0
 26 22  1  0
A    1
C02
A    2
C04
A    3
C05
A    4
C06
A    5
C07
A    6
C08
A    7
C11
A    8
C12
A    9
C03
A   10
C09
A   11
C13
A   12
C14
A   13
C15
A   14
C16
A   15
C21
A   16
C22
A   17
C23
A   18
C24
A   19
C25
A   20
C26
A   21
C27
A   22
C29
A   23
F13
A   24
N01
A   25
N02
A   26
N28
M  END
>  <Id>  (180) 
6AUX_W82_B_803

>  <ChainId>  (180) 
B

>  <AsymId>  (180) 
I

>  <SeqNum>  (180) 
803

>  <Name>  (180) 
6-(2-{5-fluoro-3'-[(methylamino)methyl][1,1'-biphenyl]-3-yl}ethyl)-4-methylpyridin-2-amine

>  <SystematicName>  (180) 
6-[2-[3-fluoranyl-5-[3-(methylaminomethyl)phenyl]phenyl]ethyl]-4-methyl-pyridin-2-amine

>  <Synonyms>  (180) 


>  <Type>  (180) 
NON-POLYMER

>  <Formula>  (180) 
C22 H24 F N3

>  <ObservedFormula>  (180) 
C22 F N3

>  <MolecularWeight>  (180) 
349.444

>  <ModifiedDate>  (180) 
2018-07-06

>  <Parent>  (180) 


>  <OneLetterCode>  (180) 


>  <SubcomponentList>  (180) 


>  <AmbiguousFlag>  (180) 
N

>  <InsertionCode>  (180) 


>  <InstanceId>  (180) 
6AUX_W82_B_803

>  <ChemCompId>  (180) 
W82

>  <PdbId>  (180) 
6AUX

>  <ResidueNumber>  (180) 
803

>  <InChI>  (180) 
InChI=1S/C22H24FN3/c1-15-8-21(26-22(24)9-15)7-6-16-10-19(13-20(23)12-16)18-5-3-4-17(11-18)14-25-2/h3-5,8-13,25H,6-7,14H2,1-2H3,(H2,24,26)

>  <InChIKey>  (180) 
GVTRYBJMAVPTHT-UHFFFAOYSA-N

>  <SMILES>  (180) 
Cc1cc(nc(c1)N)CCc2cc(cc(c2)F)c3cccc(c3)CNC

>  <MissingHeavyAtoms>  (180) 
0

>  <Model>  (180) 
1

>  <AltIds>  (180) 


>  <pKI>  (180) 
7.36

>  <ChemblID>  (180) 
-

>  <standardized_canonical_smiles>  (180) 
CNCc1cccc(-c2cc(F)cc(CCc3cc(C)cc(N)n3)c2)c1

$$$$
6AUV_W79_B_803
     RDKit          3D

 25 27  0  0  0  0  0  0  0  0999 V2000
   10.5620   -2.0300   58.1150 N   0  0  0  0  0  0  0  0  0  0  0  0
   11.1600   -0.9650   58.7150 C   0  0  0  0  0  0  0  0  0  0  0  0
   10.4940   -0.2430   59.7090 C   0  0  0  0  0  0  0  0  0  0  0  0
   11.1290    0.8340   60.3160 C   0  0  0  0  0  0  0  0  0  0  0  0
   10.4380    1.6370   61.3940 C   0  0  0  0  0  0  0  0  0  0  0  0
   12.4160    1.1740   59.9120 C   0  0  0  0  0  0  0  0  0  0  0  0
   12.4140   -0.6090   58.3480 N   0  0  0  0  0  0  0  0  0  0  0  0
   13.0530    0.4470   58.9120 C   0  0  0  0  0  0  0  0  0  0  0  0
   14.4740    0.8010   58.5040 C   0  0  0  0  0  0  0  0  0  0  0  0
   15.3130    0.0040   59.5070 C   0  0  0  0  0  0  0  0  0  0  0  0
   16.8250    0.0500   59.3880 C   0  0  0  0  0  0  0  0  0  0  0  0
   17.4820    0.7340   58.3690 C   0  0  0  0  0  0  0  0  0  0  0  0
   17.5790   -0.6350   60.3460 C   0  0  0  0  0  0  0  0  0  0  0  0
   18.9170   -0.6420   60.3120 N   0  0  0  0  0  0  0  0  0  0  0  0
   19.5710    0.0120   59.3420 C   0  0  0  0  0  0  0  0  0  0  0  0
   18.8740    0.7060   58.3540 C   0  0  0  0  0  0  0  0  0  0  0  0
   19.6330    1.4260   57.2930 C   0  0  0  0  0  0  0  0  0  0  0  0
   19.1760    2.6540   56.8210 C   0  0  0  0  0  0  0  0  0  0  0  0
   20.8070    0.8710   56.7850 C   0  0  0  0  0  0  0  0  0  0  0  0
   21.5240    1.5470   55.8020 C   0  0  0  0  0  0  0  0  0  0  0  0
   21.0660    2.7750   55.3240 C   0  0  0  0  0  0  0  0  0  0  0  0
   19.8980    3.3320   55.8400 C   0  0  0  0  0  0  0  0  0  0  0  0
   19.4040    4.6590   55.3110 C   0  0  0  0  0  0  0  0  0  0  0  0
   19.2810    4.5300   53.8470 N   0  0  0  0  0  0  0  0  0  0  0  0
   18.9400    5.8260   53.2440 C   0  0  0  0  0  0  0  0  0  0  0  0
  2  1  1  0
  3  2  2  0
  7  2  1  0
  4  3  1  0
  5  4  1  0
  6  4  2  0
  8  6  1  0
  8  7  2  0
  9  8  1  0
 10  9  1  0
 11 10  1  0
 12 11  2  0
 13 11  1  0
 16 12  1  0
 14 13  2  0
 15 14  1  0
 16 15  2  0
 17 16  1  0
 18 17  2  0
 19 17  1  0
 22 18  1  0
 20 19  2  0
 21 20  1  0
 22 21  2  0
 23 22  1  0
 24 23  1  0
 25 24  1  0
A    1
N02
A    2
C02
A    3
C03
A    4
C04
A    5
C07
A    6
C05
A    7
N01
A    8
C06
A    9
C08
A   10
C09
A   11
C13
A   12
C14
A   13
C12
A   14
N11
A   15
C16
A   16
C15
A   17
C21
A   18
C26
A   19
C22
A   20
C23
A   21
C24
A   22
C25
A   23
C27
A   24
N28
A   25
C29
M  END
>  <Id>  (181) 
6AUV_W79_B_803

>  <ChainId>  (181) 
B

>  <AsymId>  (181) 
J

>  <SeqNum>  (181) 
803

>  <Name>  (181) 
4-methyl-6-[2-(5-{3-[(methylamino)methyl]phenyl}pyridin-3-yl)ethyl]pyridin-2-amine

>  <SystematicName>  (181) 
4-methyl-6-[2-[5-[3-(methylaminomethyl)phenyl]pyridin-3-yl]ethyl]pyridin-2-amine

>  <Synonyms>  (181) 


>  <Type>  (181) 
NON-POLYMER

>  <Formula>  (181) 
C21 H24 N4

>  <ObservedFormula>  (181) 
C21 N4

>  <MolecularWeight>  (181) 
332.442

>  <ModifiedDate>  (181) 
2018-07-06

>  <Parent>  (181) 


>  <OneLetterCode>  (181) 


>  <SubcomponentList>  (181) 


>  <AmbiguousFlag>  (181) 
N

>  <InsertionCode>  (181) 


>  <InstanceId>  (181) 
6AUV_W79_B_803

>  <ChemCompId>  (181) 
W79

>  <PdbId>  (181) 
6AUV

>  <ResidueNumber>  (181) 
803

>  <InChI>  (181) 
InChI=1S/C21H24N4/c1-15-8-20(25-21(22)9-15)7-6-17-11-19(14-24-13-17)18-5-3-4-16(10-18)12-23-2/h3-5,8-11,13-14,23H,6-7,12H2,1-2H3,(H2,22,25)

>  <InChIKey>  (181) 
MGNVQSKYSZRQCR-UHFFFAOYSA-N

>  <SMILES>  (181) 
Cc1cc(nc(c1)N)CCc2cc(cnc2)c3cccc(c3)CNC

>  <MissingHeavyAtoms>  (181) 
0

>  <Model>  (181) 
1

>  <AltIds>  (181) 


>  <pKI>  (181) 
7.33

>  <ChemblID>  (181) 
-

>  <standardized_canonical_smiles>  (181) 
CNCc1cccc(-c2cncc(CCc3cc(C)cc(N)n3)c2)c1

$$$$
5UNV_8J7_B_803
     RDKit          3D

 23 25  0  0  0  0  0  0  0  0999 V2000
   12.4290    1.3610   58.3790 C   0  0  0  0  0  0  0  0  0  0  0  0
   10.6140    1.9240   61.6830 C   0  0  0  0  0  0  0  0  0  0  0  0
   14.4200    4.1260   56.7060 C   0  0  0  0  0  0  0  0  0  0  0  0
   15.8620    3.8840   57.1490 C   0  0  0  0  0  0  0  0  0  0  0  0
   16.8760    4.4990   56.2090 C   0  0  0  0  0  0  0  0  0  0  0  0
   17.2100    5.8530   56.2770 C   0  0  0  0  0  0  0  0  0  0  0  0
   18.1540    6.3910   55.4020 C   0  0  0  0  0  0  0  0  0  0  0  0
   18.7630    5.5670   54.4600 C   0  0  0  0  0  0  0  0  0  0  0  0
   18.4290    4.2130   54.3920 C   0  0  0  0  0  0  0  0  0  0  0  0
   17.4900    3.6860   55.2700 C   0  0  0  0  0  0  0  0  0  0  0  0
   19.0890    3.2970   53.3770 C   0  0  0  0  0  0  0  0  0  0  0  0
   19.3810    0.8620   53.3680 C   0  0  0  0  0  0  0  0  0  0  0  0
   11.0930   -1.9440   58.6580 N   0  0  0  0  0  0  0  0  0  0  0  0
   11.3670   -0.6490   58.9690 C   0  0  0  0  0  0  0  0  0  0  0  0
   12.1370    0.0650   58.1320 N   0  0  0  0  0  0  0  0  0  0  0  0
   10.8680   -0.0480   60.1330 C   0  0  0  0  0  0  0  0  0  0  0  0
   11.1550    1.2820   60.4250 C   0  0  0  0  0  0  0  0  0  0  0  0
   11.9420    1.9990   59.5210 C   0  0  0  0  0  0  0  0  0  0  0  0
   12.2700    3.3300   59.7480 C   0  0  0  0  0  0  0  0  0  0  0  0
   13.0650    4.0160   58.8390 C   0  0  0  0  0  0  0  0  0  0  0  0
   13.5420    3.3880   57.6910 C   0  0  0  0  0  0  0  0  0  0  0  0
   13.2250    2.0550   57.4690 C   0  0  0  0  0  0  0  0  0  0  0  0
   18.4150    1.9800   53.3070 N   0  0  0  0  0  0  0  0  0  0  0  0
 15  1  1  0
 18  1  2  0
 22  1  1  0
 17  2  1  0
  4  3  1  0
 21  3  1  0
  5  4  1  0
  6  5  2  0
 10  5  1  0
  7  6  1  0
  8  7  2  0
  9  8  1  0
 10  9  2  0
 11  9  1  0
 23 11  1  0
 23 12  1  0
 14 13  1  0
 15 14  2  0
 16 14  1  0
 17 16  2  0
 18 17  1  0
 19 18  1  0
 20 19  2  0
 21 20  1  0
 22 21  2  0
A    1
C10
A    2
C11
A    3
C12
A    4
C13
A    5
C21
A    6
C22
A    7
C23
A    8
C24
A    9
C25
A   10
C26
A   11
C27
A   12
C29
A   13
N02
A   14
C02
A   15
N01
A   16
C03
A   17
C04
A   18
C05
A   19
C06
A   20
C07
A   21
C08
A   22
C09
A   23
N28
M  END
>  <Id>  (182) 
5UNV_8J7_B_803

>  <ChainId>  (182) 
B

>  <AsymId>  (182) 
J

>  <SeqNum>  (182) 
803

>  <Name>  (182) 
4-methyl-7-(2-{3-[(methylamino)methyl]phenyl}ethyl)quinolin-2-amine

>  <SystematicName>  (182) 
4-methyl-7-[2-[3-(methylaminomethyl)phenyl]ethyl]quinolin-2-amine

>  <Synonyms>  (182) 


>  <Type>  (182) 
NON-POLYMER

>  <Formula>  (182) 
C20 H23 N3

>  <ObservedFormula>  (182) 
C20 N3

>  <MolecularWeight>  (182) 
305.417

>  <ModifiedDate>  (182) 
2017-04-28

>  <Parent>  (182) 


>  <OneLetterCode>  (182) 


>  <SubcomponentList>  (182) 


>  <AmbiguousFlag>  (182) 
N

>  <InsertionCode>  (182) 


>  <InstanceId>  (182) 
5UNV_8J7_B_803

>  <ChemCompId>  (182) 
8J7

>  <PdbId>  (182) 
5UNV

>  <ResidueNumber>  (182) 
803

>  <InChI>  (182) 
InChI=1S/C20H23N3/c1-14-10-20(21)23-19-12-16(8-9-18(14)19)7-6-15-4-3-5-17(11-15)13-22-2/h3-5,8-12,22H,6-7,13H2,1-2H3,(H2,21,23)

>  <InChIKey>  (182) 
VJMAXFIJCSRVHO-UHFFFAOYSA-N

>  <SMILES>  (182) 
Cc1cc(nc2c1ccc(c2)CCc3cccc(c3)CNC)N

>  <MissingHeavyAtoms>  (182) 
0

>  <Model>  (182) 
1

>  <AltIds>  (182) 


>  <pKI>  (182) 
7.48

>  <ChemblID>  (182) 
-

>  <standardized_canonical_smiles>  (182) 
CNCc1cccc(CCc2ccc3c(C)cc(N)nc3c2)c1

$$$$
5VUJ_JHT_B_803
     RDKit          3D

 23 25  0  0  0  0  0  0  0  0999 V2000
   22.8130    5.3640   56.4360 C   0  0  0  0  0  0  0  0  0  0  0  0
   21.3720    5.3140   56.2250 N   0  0  0  0  0  0  0  0  0  0  0  0
   20.8100    5.7520   54.9510 C   0  0  0  0  0  0  0  0  0  0  0  0
   20.5330    4.8500   57.2560 C   0  0  0  0  0  0  0  0  0  0  0  0
   20.9350    4.9550   58.5870 C   0  0  0  0  0  0  0  0  0  0  0  0
   20.1100    4.4980   59.6120 C   0  0  0  0  0  0  0  0  0  0  0  0
   18.8730    3.9360   59.3140 C   0  0  0  0  0  0  0  0  0  0  0  0
   18.4670    3.8230   57.9870 C   0  0  0  0  0  0  0  0  0  0  0  0
   17.1200    3.2240   57.6620 C   0  0  0  0  0  0  0  0  0  0  0  0
   16.1570    4.3330   57.6430 N   0  0  0  0  0  0  0  0  0  0  0  0
   15.0300    4.0010   56.7740 C   0  0  0  0  0  0  0  0  0  0  0  0
   13.9030    3.4190   57.6040 C   0  0  0  0  0  0  0  0  0  0  0  0
   13.1560    4.2490   58.4340 C   0  0  0  0  0  0  0  0  0  0  0  0
   12.1160    3.7370   59.2080 C   0  0  0  0  0  0  0  0  0  0  0  0
   11.8180    2.3800   59.1540 C   0  0  0  0  0  0  0  0  0  0  0  0
   10.7900    1.8610   59.9240 C   0  0  0  0  0  0  0  0  0  0  0  0
   10.5260    0.5040   59.8530 C   0  0  0  0  0  0  0  0  0  0  0  0
   11.2790   -0.3090   59.0030 C   0  0  0  0  0  0  0  0  0  0  0  0
   11.0300   -1.6410   58.9050 N   0  0  0  0  0  0  0  0  0  0  0  0
   12.2710    0.2250   58.2730 N   0  0  0  0  0  0  0  0  0  0  0  0
   12.5570    1.5430   58.3270 C   0  0  0  0  0  0  0  0  0  0  0  0
   13.5990    2.0600   57.5540 C   0  0  0  0  0  0  0  0  0  0  0  0
   19.2910    4.2870   56.9600 C   0  0  0  0  0  0  0  0  0  0  0  0
  2  1  1  0
  3  2  1  0
  4  2  1  0
  5  4  2  0
 23  4  1  0
  6  5  1  0
  7  6  2  0
  8  7  1  0
  9  8  1  0
 23  8  2  0
 10  9  1  0
 11 10  1  0
 12 11  1  0
 13 12  2  0
 22 12  1  0
 14 13  1  0
 15 14  2  0
 16 15  1  0
 21 15  1  0
 17 16  2  0
 18 17  1  0
 19 18  1  0
 20 18  2  0
 21 20  1  0
 22 21  2  0
A    1
C01
A    2
N02
A    3
C03
A    4
C04
A    5
C05
A    6
C06
A    7
C07
A    8
C08
A    9
C09
A   10
N10
A   11
C11
A   12
C12
A   13
C13
A   14
C14
A   15
C15
A   16
C16
A   17
C17
A   18
C18
A   19
N19
A   20
N20
A   21
C21
A   22
C22
A   23
C23
M  END
>  <Id>  (183) 
5VUJ_JHT_B_803

>  <ChainId>  (183) 
B

>  <AsymId>  (183) 
I

>  <SeqNum>  (183) 
803

>  <Name>  (183) 
7-[[[3-(dimethylamino)phenyl]methylamino]methyl]quinolin-2-amine

>  <SystematicName>  (183) 
7-[[[3-(dimethylamino)phenyl]methylamino]methyl]quinolin-2-amine

>  <Synonyms>  (183) 


>  <Type>  (183) 
non-polymer

>  <Formula>  (183) 
C19 H22 N4

>  <ObservedFormula>  (183) 
C19 N4

>  <MolecularWeight>  (183) 
306.405

>  <ModifiedDate>  (183) 
2016-09-16

>  <Parent>  (183) 


>  <OneLetterCode>  (183) 


>  <SubcomponentList>  (183) 


>  <AmbiguousFlag>  (183) 
N

>  <InsertionCode>  (183) 


>  <InstanceId>  (183) 
5VUJ_JHT_B_803

>  <ChemCompId>  (183) 
JHT

>  <PdbId>  (183) 
5VUJ

>  <ResidueNumber>  (183) 
803

>  <InChI>  (183) 
InChI=1S/C19H22N4/c1-23(2)17-5-3-4-14(10-17)12-21-13-15-6-7-16-8-9-19(20)22-18(16)11-15/h3-11,21H,12-13H2,1-2H3,(H2,20,22)

>  <InChIKey>  (183) 
SOVIURHDFSQRNW-UHFFFAOYSA-N

>  <SMILES>  (183) 
CN(C)c1cccc(c1)CNCc2ccc3ccc(nc3c2)N

>  <MissingHeavyAtoms>  (183) 
0

>  <Model>  (183) 
1

>  <AltIds>  (183) 


>  <pKI>  (183) 
6.38

>  <ChemblID>  (183) 
-

>  <standardized_canonical_smiles>  (183) 
CN(C)c1cccc(CNCc2ccc3ccc(N)nc3c2)c1

$$$$
5VUL_P64_B_803
     RDKit          3D

 24 26  0  0  0  0  0  0  0  0999 V2000
   23.2700    8.4840   54.4350 C   0  0  0  0  0  0  0  0  0  0  0  0
   22.6930    7.3440   53.7330 N   0  0  0  0  0  0  0  0  0  0  0  0
   23.4710    6.6290   52.7300 C   0  0  0  0  0  0  0  0  0  0  0  0
   19.4860    6.8610   55.5190 C   0  0  0  0  0  0  0  0  0  0  0  0
   20.7870    7.2670   55.2420 C   0  0  0  0  0  0  0  0  0  0  0  0
   21.3820    6.9370   54.0240 C   0  0  0  0  0  0  0  0  0  0  0  0
   20.6770    6.1960   53.0860 C   0  0  0  0  0  0  0  0  0  0  0  0
   19.3790    5.7920   53.3590 C   0  0  0  0  0  0  0  0  0  0  0  0
   18.7910    6.1180   54.5770 C   0  0  0  0  0  0  0  0  0  0  0  0
   17.3750    5.6660   54.8440 C   0  0  0  0  0  0  0  0  0  0  0  0
   17.2230    5.0720   56.2320 C   0  0  0  0  0  0  0  0  0  0  0  0
   15.7940    4.7840   56.4500 N   0  0  0  0  0  0  0  0  0  0  0  0
   15.7530    3.7180   57.4470 C   0  0  0  0  0  0  0  0  0  0  0  0
   12.8850    1.4670   58.3470 C   0  0  0  0  0  0  0  0  0  0  0  0
   14.1030    1.9440   57.8900 C   0  0  0  0  0  0  0  0  0  0  0  0
   14.3850    3.3060   57.9520 C   0  0  0  0  0  0  0  0  0  0  0  0
   13.4580    4.2070   58.5000 C   0  0  0  0  0  0  0  0  0  0  0  0
   12.2190    3.7690   59.0090 C   0  0  0  0  0  0  0  0  0  0  0  0
   11.9030    2.4080   58.9370 C   0  0  0  0  0  0  0  0  0  0  0  0
   10.7020    1.8850   59.4160 C   0  0  0  0  0  0  0  0  0  0  0  0
   10.5050    0.5020   59.3060 C   0  0  0  0  0  0  0  0  0  0  0  0
   11.4460   -0.3540   58.7190 C   0  0  0  0  0  0  0  0  0  0  0  0
   11.2120   -1.6910   58.6090 N   0  0  0  0  0  0  0  0  0  0  0  0
   12.6130    0.1440   58.2700 N   0  0  0  0  0  0  0  0  0  0  0  0
  2  1  1  0
  3  2  1  0
  6  2  1  0
  5  4  2  0
  9  4  1  0
  6  5  1  0
  7  6  2  0
  8  7  1  0
  9  8  2  0
 10  9  1  0
 11 10  1  0
 12 11  1  0
 13 12  1  0
 16 13  1  0
 15 14  2  0
 19 14  1  0
 24 14  1  0
 16 15  1  0
 17 16  2  0
 18 17  1  0
 19 18  2  0
 20 19  1  0
 21 20  2  0
 22 21  1  0
 23 22  1  0
 24 22  2  0
A    1
C28
A    2
N27
A    3
C29
A    4
C26
A    5
C25
A    6
C24
A    7
C23
A    8
C22
A    9
C21
A   10
C14
A   11
C13
A   12
N12
A   13
C11
A   14
C10
A   15
C09
A   16
C08
A   17
C07
A   18
C06
A   19
C05
A   20
C04
A   21
C03
A   22
C02
A   23
N02
A   24
N01
M  END
>  <Id>  (184) 
5VUL_P64_B_803

>  <ChainId>  (184) 
B

>  <AsymId>  (184) 
J

>  <SeqNum>  (184) 
803

>  <Name>  (184) 
7-[({2-[4-(dimethylamino)phenyl]ethyl}amino)methyl]quinolin-2-amine

>  <SystematicName>  (184) 
7-[[2-[4-(dimethylamino)phenyl]ethylamino]methyl]quinolin-2-amine

>  <Synonyms>  (184) 


>  <Type>  (184) 
NON-POLYMER

>  <Formula>  (184) 
C20 H24 N4

>  <ObservedFormula>  (184) 
C20 N4

>  <MolecularWeight>  (184) 
320.431

>  <ModifiedDate>  (184) 
2017-08-11

>  <Parent>  (184) 


>  <OneLetterCode>  (184) 


>  <SubcomponentList>  (184) 


>  <AmbiguousFlag>  (184) 
N

>  <InsertionCode>  (184) 


>  <InstanceId>  (184) 
5VUL_P64_B_803

>  <ChemCompId>  (184) 
P64

>  <PdbId>  (184) 
5VUL

>  <ResidueNumber>  (184) 
803

>  <InChI>  (184) 
InChI=1S/C20H24N4/c1-24(2)18-8-4-15(5-9-18)11-12-22-14-16-3-6-17-7-10-20(21)23-19(17)13-16/h3-10,13,22H,11-12,14H2,1-2H3,(H2,21,23)

>  <InChIKey>  (184) 
SYHMYZCWRIEYOI-UHFFFAOYSA-N

>  <SMILES>  (184) 
CN(C)c1ccc(cc1)CCNCc2ccc3ccc(nc3c2)N

>  <MissingHeavyAtoms>  (184) 
0

>  <Model>  (184) 
1

>  <AltIds>  (184) 


>  <pKI>  (184) 
7.44

>  <ChemblID>  (184) 
-

>  <standardized_canonical_smiles>  (184) 
CN(C)c1ccc(CCNCc2ccc3ccc(N)nc3c2)cc1

$$$$
5VUK_9P1_B_803
     RDKit          3D

 23 25  0  0  0  0  0  0  0  0999 V2000
   11.5890   -0.3450   58.7320 C   0  0  0  0  0  0  0  0  0  0  0  0
   10.9860    1.8130   59.6480 C   0  0  0  0  0  0  0  0  0  0  0  0
   12.0270    2.3800   58.9150 C   0  0  0  0  0  0  0  0  0  0  0  0
   15.2720    4.1210   56.6550 C   0  0  0  0  0  0  0  0  0  0  0  0
   17.6510    3.7770   56.4400 C   0  0  0  0  0  0  0  0  0  0  0  0
   10.7770    0.4360   59.5600 C   0  0  0  0  0  0  0  0  0  0  0  0
   12.2770    3.7440   58.9870 C   0  0  0  0  0  0  0  0  0  0  0  0
   18.1290    5.0900   55.8490 C   0  0  0  0  0  0  0  0  0  0  0  0
   18.0390    5.3020   54.4770 C   0  0  0  0  0  0  0  0  0  0  0  0
   19.0180    7.5190   54.7130 C   0  0  0  0  0  0  0  0  0  0  0  0
   19.1160    7.2940   56.0880 C   0  0  0  0  0  0  0  0  0  0  0  0
   18.6790    6.0900   56.6500 C   0  0  0  0  0  0  0  0  0  0  0  0
   18.6270    9.8970   53.9760 C   0  0  0  0  0  0  0  0  0  0  0  0
   20.8480    8.8150   53.6250 C   0  0  0  0  0  0  0  0  0  0  0  0
   11.3790   -1.6930   58.6130 N   0  0  0  0  0  0  0  0  0  0  0  0
   12.5950    0.2410   58.0390 N   0  0  0  0  0  0  0  0  0  0  0  0
   12.8300    1.5750   58.1100 C   0  0  0  0  0  0  0  0  0  0  0  0
   13.3240    4.3030   58.2560 C   0  0  0  0  0  0  0  0  0  0  0  0
   14.1330    3.5050   57.4490 C   0  0  0  0  0  0  0  0  0  0  0  0
   13.8830    2.1350   57.3790 C   0  0  0  0  0  0  0  0  0  0  0  0
   16.5390    3.9600   57.3920 N   0  0  0  0  0  0  0  0  0  0  0  0
   18.4830    6.5030   53.9180 C   0  0  0  0  0  0  0  0  0  0  0  0
   19.4790    8.7250   54.1230 N   0  0  0  0  0  0  0  0  0  0  0  0
  6  1  2  0
 15  1  1  0
 16  1  1  0
  3  2  2  0
  6  2  1  0
  7  3  1  0
 17  3  1  0
 19  4  1  0
 21  4  1  0
  8  5  1  0
 21  5  1  0
 18  7  2  0
  9  8  2  0
 12  8  1  0
 22  9  1  0
 11 10  1  0
 22 10  2  0
 23 10  1  0
 12 11  2  0
 23 13  1  0
 23 14  1  0
 17 16  2  0
 20 17  1  0
 19 18  1  0
 20 19  2  0
A    1
C02
A    2
C04
A    3
C05
A    4
C11
A    5
C13
A    6
C03
A    7
C06
A    8
C21
A    9
C22
A   10
C24
A   11
C25
A   12
C26
A   13
C28
A   14
C29
A   15
N02
A   16
N01
A   17
C10
A   18
C07
A   19
C08
A   20
C09
A   21
N12
A   22
C23
A   23
N27
M  END
>  <Id>  (185) 
5VUK_9P1_B_803

>  <ChainId>  (185) 
B

>  <AsymId>  (185) 
J

>  <SeqNum>  (185) 
803

>  <Name>  (185) 
7-[({[4-(dimethylamino)phenyl]methyl}amino)methyl]quinolin-2-amine

>  <SystematicName>  (185) 
7-[[[4-(dimethylamino)phenyl]methylamino]methyl]quinolin-2-amine

>  <Synonyms>  (185) 


>  <Type>  (185) 
NON-POLYMER

>  <Formula>  (185) 
C19 H22 N4

>  <ObservedFormula>  (185) 
C19 N4

>  <MolecularWeight>  (185) 
306.405

>  <ModifiedDate>  (185) 
2017-08-11

>  <Parent>  (185) 


>  <OneLetterCode>  (185) 


>  <SubcomponentList>  (185) 


>  <AmbiguousFlag>  (185) 
N

>  <InsertionCode>  (185) 


>  <InstanceId>  (185) 
5VUK_9P1_B_803

>  <ChemCompId>  (185) 
9P1

>  <PdbId>  (185) 
5VUK

>  <ResidueNumber>  (185) 
803

>  <InChI>  (185) 
InChI=1S/C19H22N4/c1-23(2)17-8-4-14(5-9-17)12-21-13-15-3-6-16-7-10-19(20)22-18(16)11-15/h3-11,21H,12-13H2,1-2H3,(H2,20,22)

>  <InChIKey>  (185) 
JEOSSXMVBYPUED-UHFFFAOYSA-N

>  <SMILES>  (185) 
CN(C)c1ccc(cc1)CNCc2ccc3ccc(nc3c2)N

>  <MissingHeavyAtoms>  (185) 
0

>  <Model>  (185) 
1

>  <AltIds>  (185) 


>  <pKI>  (185) 
6.28

>  <ChemblID>  (185) 
-

>  <standardized_canonical_smiles>  (185) 
CN(C)c1ccc(CNCc2ccc3ccc(N)nc3c2)cc1

$$$$
5UNT_8J1_B_803
     RDKit          3D

 23 25  0  0  0  0  0  0  0  0999 V2000
   11.2540   -1.9510   58.8640 N   0  0  0  0  0  0  0  0  0  0  0  0
   11.4810   -0.6590   59.2030 C   0  0  0  0  0  0  0  0  0  0  0  0
   12.3150    0.0620   58.4290 N   0  0  0  0  0  0  0  0  0  0  0  0
   12.5650    1.3620   58.7090 C   0  0  0  0  0  0  0  0  0  0  0  0
   10.8680   -0.0730   60.3280 C   0  0  0  0  0  0  0  0  0  0  0  0
   11.1190    1.2640   60.6370 C   0  0  0  0  0  0  0  0  0  0  0  0
   10.4950    1.9470   61.8300 C   0  0  0  0  0  0  0  0  0  0  0  0
   11.9750    1.9830   59.8110 C   0  0  0  0  0  0  0  0  0  0  0  0
   12.2510    3.3210   60.0830 C   0  0  0  0  0  0  0  0  0  0  0  0
   13.1100    4.0240   59.2490 C   0  0  0  0  0  0  0  0  0  0  0  0
   13.7010    3.4050   58.1430 C   0  0  0  0  0  0  0  0  0  0  0  0
   13.4310    2.0730   57.8900 C   0  0  0  0  0  0  0  0  0  0  0  0
   14.6580    4.1810   57.2630 C   0  0  0  0  0  0  0  0  0  0  0  0
   15.3540    5.0530   58.1580 O   0  0  0  0  0  0  0  0  0  0  0  0
   16.3550    5.9260   57.8070 C   0  0  0  0  0  0  0  0  0  0  0  0
   16.9430    5.8750   56.5440 C   0  0  0  0  0  0  0  0  0  0  0  0
   16.7840    6.8720   58.7440 C   0  0  0  0  0  0  0  0  0  0  0  0
   17.7960    7.7730   58.4300 C   0  0  0  0  0  0  0  0  0  0  0  0
   18.3790    7.7210   57.1650 C   0  0  0  0  0  0  0  0  0  0  0  0
   17.9570    6.7770   56.2250 C   0  0  0  0  0  0  0  0  0  0  0  0
   18.5980    6.7270   54.8590 C   0  0  0  0  0  0  0  0  0  0  0  0
   19.4430    5.5230   54.7710 N   0  0  0  0  0  0  0  0  0  0  0  0
   20.7530    5.7790   55.3940 C   0  0  0  0  0  0  0  0  0  0  0  0
  2  1  1  0
  3  2  2  0
  5  2  1  0
  4  3  1  0
  8  4  2  0
 12  4  1  0
  6  5  2  0
  7  6  1  0
  8  6  1  0
  9  8  1  0
 10  9  2  0
 11 10  1  0
 12 11  2  0
 13 11  1  0
 14 13  1  0
 15 14  1  0
 16 15  2  0
 17 15  1  0
 20 16  1  0
 18 17  2  0
 19 18  1  0
 20 19  2  0
 21 20  1  0
 22 21  1  0
 23 22  1  0
A    1
N02
A    2
C02
A    3
N01
A    4
C10
A    5
C03
A    6
C04
A    7
C11
A    8
C05
A    9
C06
A   10
C07
A   11
C08
A   12
C09
A   13
C12
A   14
O13
A   15
C21
A   16
C26
A   17
C22
A   18
C23
A   19
C24
A   20
C25
A   21
C27
A   22
N28
A   23
C29
M  END
>  <Id>  (186) 
5UNT_8J1_B_803

>  <ChainId>  (186) 
B

>  <AsymId>  (186) 
J

>  <SeqNum>  (186) 
803

>  <Name>  (186) 
4-methyl-7-({3-[(methylamino)methyl]phenoxy}methyl)quinolin-2-amine

>  <SystematicName>  (186) 
4-methyl-7-[[3-(methylaminomethyl)phenoxy]methyl]quinolin-2-amine

>  <Synonyms>  (186) 


>  <Type>  (186) 
NON-POLYMER

>  <Formula>  (186) 
C19 H21 N3 O

>  <ObservedFormula>  (186) 
C19 N3 O

>  <MolecularWeight>  (186) 
307.39

>  <ModifiedDate>  (186) 
2017-04-28

>  <Parent>  (186) 


>  <OneLetterCode>  (186) 


>  <SubcomponentList>  (186) 


>  <AmbiguousFlag>  (186) 
N

>  <InsertionCode>  (186) 


>  <InstanceId>  (186) 
5UNT_8J1_B_803

>  <ChemCompId>  (186) 
8J1

>  <PdbId>  (186) 
5UNT

>  <ResidueNumber>  (186) 
803

>  <InChI>  (186) 
InChI=1S/C19H21N3O/c1-13-8-19(20)22-18-10-15(6-7-17(13)18)12-23-16-5-3-4-14(9-16)11-21-2/h3-10,21H,11-12H2,1-2H3,(H2,20,22)

>  <InChIKey>  (186) 
XVIFXVGFIDKFPS-UHFFFAOYSA-N

>  <SMILES>  (186) 
Cc1cc(nc2c1ccc(c2)COc3cccc(c3)CNC)N

>  <MissingHeavyAtoms>  (186) 
0

>  <Model>  (186) 
1

>  <AltIds>  (186) 


>  <pKI>  (186) 
7.41

>  <ChemblID>  (186) 
-

>  <standardized_canonical_smiles>  (186) 
CNCc1cccc(OCc2ccc3c(C)cc(N)nc3c2)c1

$$$$
5UNW_8F7_B_803
     RDKit          3D

 25 27  0  0  0  0  0  0  0  0999 V2000
   18.5690    8.4530   54.1410 N   0  0  0  0  0  0  0  0  0  0  0  0
   18.3230    7.3610   54.4440 C   0  0  0  0  0  0  0  0  0  0  0  0
   18.0980    6.1540   54.8210 C   0  0  0  0  0  0  0  0  0  0  0  0
   18.8490    5.1460   54.2380 C   0  0  0  0  0  0  0  0  0  0  0  0
   18.6410    3.8170   54.5990 C   0  0  0  0  0  0  0  0  0  0  0  0
   19.4500    2.7100   53.9660 C   0  0  0  0  0  0  0  0  0  0  0  0
   18.7730    2.3240   52.7130 N   0  0  0  0  0  0  0  0  0  0  0  0
   19.0470    0.9120   52.4010 C   0  0  0  0  0  0  0  0  0  0  0  0
   17.1170    5.8350   55.7600 C   0  0  0  0  0  0  0  0  0  0  0  0
   16.9120    4.5070   56.1200 C   0  0  0  0  0  0  0  0  0  0  0  0
   17.6670    3.4960   55.5390 C   0  0  0  0  0  0  0  0  0  0  0  0
   15.8550    4.1490   57.1330 C   0  0  0  0  0  0  0  0  0  0  0  0
   14.4940    4.1970   56.4450 C   0  0  0  0  0  0  0  0  0  0  0  0
   13.5880    3.4140   57.3380 C   0  0  0  0  0  0  0  0  0  0  0  0
   13.3490    2.0660   57.0850 C   0  0  0  0  0  0  0  0  0  0  0  0
   13.0100    4.0550   58.4300 C   0  0  0  0  0  0  0  0  0  0  0  0
   12.1860    3.3410   59.2920 C   0  0  0  0  0  0  0  0  0  0  0  0
   11.9390    1.9920   59.0580 C   0  0  0  0  0  0  0  0  0  0  0  0
   11.1160    1.2780   59.9200 C   0  0  0  0  0  0  0  0  0  0  0  0
   10.4960    1.9380   61.1240 C   0  0  0  0  0  0  0  0  0  0  0  0
   10.8840   -0.0600   59.6650 C   0  0  0  0  0  0  0  0  0  0  0  0
   11.4730   -0.6680   58.5500 C   0  0  0  0  0  0  0  0  0  0  0  0
   11.2390   -1.9770   58.3000 N   0  0  0  0  0  0  0  0  0  0  0  0
   12.2740    0.0370   57.7280 N   0  0  0  0  0  0  0  0  0  0  0  0
   12.5210    1.3510   57.9560 C   0  0  0  0  0  0  0  0  0  0  0  0
  2  1  3  0
  3  2  1  0
  4  3  2  0
  9  3  1  0
  5  4  1  0
  6  5  1  0
 11  5  2  0
  7  6  1  0
  8  7  1  0
 10  9  2  0
 11 10  1  0
 12 10  1  0
 13 12  1  0
 14 13  1  0
 15 14  2  0
 16 14  1  0
 25 15  1  0
 17 16  2  0
 18 17  1  0
 19 18  1  0
 25 18  2  0
 20 19  1  0
 21 19  2  0
 22 21  1  0
 23 22  1  0
 24 22  2  0
 25 24  1  0
A    1
N28
A    2
C27
A    3
C23
A    4
C24
A    5
C25
A    6
C29
A    7
N30
A    8
C31
A    9
C22
A   10
C21
A   11
C26
A   12
C13
A   13
C12
A   14
C08
A   15
C09
A   16
C07
A   17
C06
A   18
C05
A   19
C04
A   20
C11
A   21
C03
A   22
C02
A   23
N02
A   24
N01
A   25
C10
M  END
>  <Id>  (187) 
5UNW_8F7_B_803

>  <ChainId>  (187) 
B

>  <AsymId>  (187) 
J

>  <SeqNum>  (187) 
803

>  <Name>  (187) 
3-[2-(2-amino-4-methylquinolin-7-yl)ethyl]-5-[(methylamino)methyl]benzonitrile

>  <SystematicName>  (187) 
3-[2-(2-azanyl-4-methyl-quinolin-7-yl)ethyl]-5-(methylaminomethyl)benzenecarbonitrile

>  <Synonyms>  (187) 


>  <Type>  (187) 
NON-POLYMER

>  <Formula>  (187) 
C21 H22 N4

>  <ObservedFormula>  (187) 
C21 N4

>  <MolecularWeight>  (187) 
330.426

>  <ModifiedDate>  (187) 
2017-04-28

>  <Parent>  (187) 


>  <OneLetterCode>  (187) 


>  <SubcomponentList>  (187) 


>  <AmbiguousFlag>  (187) 
N

>  <InsertionCode>  (187) 


>  <InstanceId>  (187) 
5UNW_8F7_B_803

>  <ChemCompId>  (187) 
8F7

>  <PdbId>  (187) 
5UNW

>  <ResidueNumber>  (187) 
803

>  <InChI>  (187) 
InChI=1S/C21H22N4/c1-14-7-21(23)25-20-11-15(5-6-19(14)20)3-4-16-8-17(12-22)10-18(9-16)13-24-2/h5-11,24H,3-4,13H2,1-2H3,(H2,23,25)

>  <InChIKey>  (187) 
RWCOIXDPXHFMEG-UHFFFAOYSA-N

>  <SMILES>  (187) 
Cc1cc(nc2c1ccc(c2)CCc3cc(cc(c3)C#N)CNC)N

>  <MissingHeavyAtoms>  (187) 
0

>  <Model>  (187) 
1

>  <AltIds>  (187) 


>  <pKI>  (187) 
7.44

>  <ChemblID>  (187) 
-

>  <standardized_canonical_smiles>  (187) 
CNCc1cc(C#N)cc(CCc2ccc3c(C)cc(N)nc3c2)c1

$$$$
5UNU_8EY_B_803
     RDKit          3D

 25 27  0  0  0  0  0  0  0  0999 V2000
   17.4490    7.7710   57.6520 C   0  0  0  0  0  0  0  0  0  0  0  0
   18.1370    7.4770   56.4640 C   0  0  0  0  0  0  0  0  0  0  0  0
   17.8160    6.3280   55.7290 C   0  0  0  0  0  0  0  0  0  0  0  0
   16.8080    5.4770   56.1800 C   0  0  0  0  0  0  0  0  0  0  0  0
   16.4480    6.9250   58.0880 C   0  0  0  0  0  0  0  0  0  0  0  0
   16.1310    5.7880   57.3520 C   0  0  0  0  0  0  0  0  0  0  0  0
   14.2220    4.3160   56.9070 C   0  0  0  0  0  0  0  0  0  0  0  0
   10.6270    1.7600   61.8320 C   0  0  0  0  0  0  0  0  0  0  0  0
   13.4050    3.4930   57.8570 C   0  0  0  0  0  0  0  0  0  0  0  0
   12.8850    4.0780   59.0180 C   0  0  0  0  0  0  0  0  0  0  0  0
   12.1460    3.3200   59.9240 C   0  0  0  0  0  0  0  0  0  0  0  0
   13.2100    2.1490   57.6030 C   0  0  0  0  0  0  0  0  0  0  0  0
   12.4730    1.3830   58.5000 C   0  0  0  0  0  0  0  0  0  0  0  0
   12.2800    0.0660   58.2200 N   0  0  0  0  0  0  0  0  0  0  0  0
   11.9380    1.9670   59.6610 C   0  0  0  0  0  0  0  0  0  0  0  0
   11.2090    1.1810   60.5580 C   0  0  0  0  0  0  0  0  0  0  0  0
   11.0310   -0.1620   60.2500 C   0  0  0  0  0  0  0  0  0  0  0  0
   11.5740   -0.7080   59.0700 C   0  0  0  0  0  0  0  0  0  0  0  0
   11.3940   -2.0160   58.7760 N   0  0  0  0  0  0  0  0  0  0  0  0
   18.0620    9.8070   58.8490 N   0  0  0  0  0  0  0  0  0  0  0  0
   17.7430    8.8300   58.3140 C   0  0  0  0  0  0  0  0  0  0  0  0
   18.5680    6.0070   54.4630 C   0  0  0  0  0  0  0  0  0  0  0  0
   19.6030    5.0020   54.7730 N   0  0  0  0  0  0  0  0  0  0  0  0
   20.8450    5.6690   55.2100 C   0  0  0  0  0  0  0  0  0  0  0  0
   15.1410    4.9600   57.7860 O   0  0  0  0  0  0  0  0  0  0  0  0
  2  1  2  0
  5  1  1  0
 21  1  1  0
  3  2  1  0
  4  3  2  0
 22  3  1  0
  6  4  1  0
  6  5  2  0
 25  6  1  0
  9  7  1  0
 25  7  1  0
 16  8  1  0
 10  9  2  0
 12  9  1  0
 11 10  1  0
 15 11  2  0
 13 12  2  0
 14 13  1  0
 15 13  1  0
 18 14  2  0
 16 15  1  0
 17 16  2  0
 18 17  1  0
 19 18  1  0
 21 20  3  0
 23 22  1  0
 24 23  1  0
A    1
C23
A    2
C24
A    3
C25
A    4
C26
A    5
C22
A    6
C21
A    7
C12
A    8
C11
A    9
C08
A   10
C07
A   11
C06
A   12
C09
A   13
C10
A   14
N01
A   15
C05
A   16
C04
A   17
C03
A   18
C02
A   19
N02
A   20
N31
A   21
C30
A   22
C27
A   23
N28
A   24
C29
A   25
O13
M  END
>  <Id>  (188) 
5UNU_8EY_B_803

>  <ChainId>  (188) 
B

>  <AsymId>  (188) 
J

>  <SeqNum>  (188) 
803

>  <Name>  (188) 
3-[(2-amino-4-methylquinolin-7-yl)methoxy]-5-[(methylamino)methyl]benzonitrile

>  <SystematicName>  (188) 
3-[(2-azanyl-4-methyl-quinolin-7-yl)methoxy]-5-(methylaminomethyl)benzenecarbonitrile

>  <Synonyms>  (188) 


>  <Type>  (188) 
NON-POLYMER

>  <Formula>  (188) 
C20 H20 N4 O

>  <ObservedFormula>  (188) 
C20 N4 O

>  <MolecularWeight>  (188) 
332.399

>  <ModifiedDate>  (188) 
2017-04-28

>  <Parent>  (188) 


>  <OneLetterCode>  (188) 


>  <SubcomponentList>  (188) 


>  <AmbiguousFlag>  (188) 
N

>  <InsertionCode>  (188) 


>  <InstanceId>  (188) 
5UNU_8EY_B_803

>  <ChemCompId>  (188) 
8EY

>  <PdbId>  (188) 
5UNU

>  <ResidueNumber>  (188) 
803

>  <InChI>  (188) 
InChI=1S/C20H20N4O/c1-13-5-20(22)24-19-9-14(3-4-18(13)19)12-25-17-7-15(10-21)6-16(8-17)11-23-2/h3-9,23H,11-12H2,1-2H3,(H2,22,24)

>  <InChIKey>  (188) 
NLOWGCVMDAJXMN-UHFFFAOYSA-N

>  <SMILES>  (188) 
Cc1cc(nc2c1ccc(c2)COc3cc(cc(c3)C#N)CNC)N

>  <MissingHeavyAtoms>  (188) 
0

>  <Model>  (188) 
1

>  <AltIds>  (188) 


>  <pKI>  (188) 
7.48

>  <ChemblID>  (188) 
-

>  <standardized_canonical_smiles>  (188) 
CNCc1cc(C#N)cc(OCc2ccc3c(C)cc(N)nc3c2)c1

$$$$
5UNR_8EV_B_803
     RDKit          3D

 24 26  0  0  0  0  0  0  0  0999 V2000
   12.4780    1.3180   58.5730 C   0  0  0  0  0  0  0  0  0  0  0  0
   16.4000    7.1820   58.3310 C   0  0  0  0  0  0  0  0  0  0  0  0
   17.4360    7.9880   57.8640 C   0  0  0  0  0  0  0  0  0  0  0  0
   17.8850   10.1470   58.9280 N   0  0  0  0  0  0  0  0  0  0  0  0
   17.7090    9.1250   58.4090 C   0  0  0  0  0  0  0  0  0  0  0  0
   18.0800    7.6550   56.6700 C   0  0  0  0  0  0  0  0  0  0  0  0
   17.7500    6.4910   55.9750 C   0  0  0  0  0  0  0  0  0  0  0  0
   18.4740    6.1050   54.7080 C   0  0  0  0  0  0  0  0  0  0  0  0
   19.3100    4.9200   54.9750 N   0  0  0  0  0  0  0  0  0  0  0  0
   20.6180    5.3610   55.4900 C   0  0  0  0  0  0  0  0  0  0  0  0
   16.0780    6.0110   57.6390 C   0  0  0  0  0  0  0  0  0  0  0  0
   16.7450    5.6670   56.4610 C   0  0  0  0  0  0  0  0  0  0  0  0
   15.0880    5.1860   58.0970 O   0  0  0  0  0  0  0  0  0  0  0  0
   14.6400    4.1200   57.2660 C   0  0  0  0  0  0  0  0  0  0  0  0
   13.5980    3.3680   58.0470 C   0  0  0  0  0  0  0  0  0  0  0  0
   13.4330    2.0060   57.8410 C   0  0  0  0  0  0  0  0  0  0  0  0
   12.8220    4.0350   58.9880 C   0  0  0  0  0  0  0  0  0  0  0  0
   11.8690    3.3440   59.7280 C   0  0  0  0  0  0  0  0  0  0  0  0
   11.6960    1.9840   59.5160 C   0  0  0  0  0  0  0  0  0  0  0  0
   10.7490    1.2820   60.2470 C   0  0  0  0  0  0  0  0  0  0  0  0
   10.6160   -0.0820   60.0070 C   0  0  0  0  0  0  0  0  0  0  0  0
   11.4060   -0.7140   59.0430 C   0  0  0  0  0  0  0  0  0  0  0  0
   11.2740   -2.0420   58.7980 N   0  0  0  0  0  0  0  0  0  0  0  0
   12.3240   -0.0090   58.3620 N   0  0  0  0  0  0  0  0  0  0  0  0
 16  1  2  0
 19  1  1  0
 24  1  1  0
  3  2  2  0
 11  2  1  0
  5  3  1  0
  6  3  1  0
  5  4  3  0
  7  6  2  0
  8  7  1  0
 12  7  1  0
  9  8  1  0
 10  9  1  0
 12 11  2  0
 13 11  1  0
 14 13  1  0
 15 14  1  0
 16 15  1  0
 17 15  2  0
 18 17  1  0
 19 18  2  0
 20 19  1  0
 21 20  2  0
 22 21  1  0
 23 22  1  0
 24 22  2  0
A    1
C10
A    2
C22
A    3
C23
A    4
N28
A    5
C27
A    6
C24
A    7
C25
A    8
C29
A    9
N30
A   10
C31
A   11
C21
A   12
C26
A   13
O12
A   14
C11
A   15
C08
A   16
C09
A   17
C07
A   18
C06
A   19
C05
A   20
C04
A   21
C03
A   22
C02
A   23
N02
A   24
N01
M  END
>  <Id>  (189) 
5UNR_8EV_B_803

>  <ChainId>  (189) 
B

>  <AsymId>  (189) 
J

>  <SeqNum>  (189) 
803

>  <Name>  (189) 
3-[(2-aminoquinolin-7-yl)methoxy]-5-[(methylamino)methyl]benzonitrile

>  <SystematicName>  (189) 
3-[(2-azanylquinolin-7-yl)methoxy]-5-(methylaminomethyl)benzenecarbonitrile

>  <Synonyms>  (189) 


>  <Type>  (189) 
NON-POLYMER

>  <Formula>  (189) 
C19 H18 N4 O

>  <ObservedFormula>  (189) 
C19 N4 O

>  <MolecularWeight>  (189) 
318.372

>  <ModifiedDate>  (189) 
2017-04-28

>  <Parent>  (189) 


>  <OneLetterCode>  (189) 


>  <SubcomponentList>  (189) 


>  <AmbiguousFlag>  (189) 
N

>  <InsertionCode>  (189) 


>  <InstanceId>  (189) 
5UNR_8EV_B_803

>  <ChemCompId>  (189) 
8EV

>  <PdbId>  (189) 
5UNR

>  <ResidueNumber>  (189) 
803

>  <InChI>  (189) 
InChI=1S/C19H18N4O/c1-22-11-15-6-14(10-20)7-17(8-15)24-12-13-2-3-16-4-5-19(21)23-18(16)9-13/h2-9,22H,11-12H2,1H3,(H2,21,23)

>  <InChIKey>  (189) 
QYHMAWINXHLCMX-UHFFFAOYSA-N

>  <SMILES>  (189) 
CNCc1cc(cc(c1)OCc2ccc3ccc(nc3c2)N)C#N

>  <MissingHeavyAtoms>  (189) 
0

>  <Model>  (189) 
1

>  <AltIds>  (189) 


>  <pKI>  (189) 
7.46

>  <ChemblID>  (189) 
-

>  <standardized_canonical_smiles>  (189) 
CNCc1cc(C#N)cc(OCc2ccc3ccc(N)nc3c2)c1

$$$$
5ADC_TUE_B_800
     RDKit          3D

 22 24  0  0  0  0  0  0  0  0999 V2000
   12.2430   -0.1540   58.4030 N   0  0  0  0  0  0  0  0  0  0  0  0
   11.2700   -0.8250   59.0490 C   0  0  0  0  0  0  0  0  0  0  0  0
   11.1070   -2.1590   58.8490 N   0  0  0  0  0  0  0  0  0  0  0  0
   10.4450   -0.1480   59.9460 C   0  0  0  0  0  0  0  0  0  0  0  0
   10.5940    1.2180   60.1580 C   0  0  0  0  0  0  0  0  0  0  0  0
   11.5970    1.8860   59.4680 C   0  0  0  0  0  0  0  0  0  0  0  0
   11.7830    3.2530   59.6500 C   0  0  0  0  0  0  0  0  0  0  0  0
   12.7890    3.9170   58.9580 C   0  0  0  0  0  0  0  0  0  0  0  0
   13.6020    3.2010   58.0840 C   0  0  0  0  0  0  0  0  0  0  0  0
   13.4210    1.8360   57.9100 C   0  0  0  0  0  0  0  0  0  0  0  0
   12.4150    1.1740   58.5930 C   0  0  0  0  0  0  0  0  0  0  0  0
   14.7060    3.9050   57.3560 C   0  0  0  0  0  0  0  0  0  0  0  0
   15.0720    5.0230   58.1530 O   0  0  0  0  0  0  0  0  0  0  0  0
   17.4600    7.7610   58.1420 N   0  0  0  0  0  0  0  0  0  0  0  0
   16.4540    6.9550   58.5230 C   0  0  0  0  0  0  0  0  0  0  0  0
   16.1030    5.8350   57.7590 C   0  0  0  0  0  0  0  0  0  0  0  0
   16.8010    5.5440   56.5880 C   0  0  0  0  0  0  0  0  0  0  0  0
   17.8350    6.3950   56.2140 C   0  0  0  0  0  0  0  0  0  0  0  0
   18.1500    7.4980   57.0200 C   0  0  0  0  0  0  0  0  0  0  0  0
   18.6200    6.1100   54.9550 C   0  0  0  0  0  0  0  0  0  0  0  0
   19.5380    5.0030   55.1910 N   0  0  0  0  0  0  0  0  0  0  0  0
   20.5180    5.1500   55.9730 C   0  0  0  0  0  0  0  0  0  0  0  0
  2  1  2  0
 11  1  1  0
  3  2  1  0
  4  2  1  0
  5  4  2  0
  6  5  1  0
  7  6  1  0
 11  6  2  0
  8  7  2  0
  9  8  1  0
 10  9  2  0
 12  9  1  0
 11 10  1  0
 13 12  1  0
 16 13  1  0
 15 14  2  0
 19 14  1  0
 16 15  1  0
 17 16  2  0
 18 17  1  0
 19 18  2  0
 20 18  1  0
 21 20  1  0
 22 21  2  0
A    1
N01
A    2
C02
A    3
N02
A    4
C03
A    5
C04
A    6
C05
A    7
C06
A    8
C07
A    9
C08
A   10
C09
A   11
C10
A   12
C11
A   13
O12
A   14
N21
A   15
C22
A   16
C23
A   17
C24
A   18
C25
A   19
C26
A   20
C27
A   21
N28
A   22
C29
M  END
>  <Id>  (190) 
5ADC_TUE_B_800

>  <ChainId>  (190) 
B

>  <AsymId>  (190) 
J

>  <SeqNum>  (190) 
800

>  <Name>  (190) 
7-[[5-[(methylideneamino)methyl]pyridin-3-yl]oxymethyl]quinolin-2-amine

>  <SystematicName>  (190) 
7-[[5-[(methylideneamino)methyl]pyridin-3-yl]oxymethyl]quinolin-2-amine

>  <Synonyms>  (190) 


>  <Type>  (190) 
NON-POLYMER

>  <Formula>  (190) 
C17 H16 N4 O

>  <ObservedFormula>  (190) 
C17 N4 O

>  <MolecularWeight>  (190) 
292.335

>  <ModifiedDate>  (190) 
2015-10-23

>  <Parent>  (190) 


>  <OneLetterCode>  (190) 


>  <SubcomponentList>  (190) 


>  <AmbiguousFlag>  (190) 
N

>  <InsertionCode>  (190) 


>  <InstanceId>  (190) 
5ADC_TUE_B_800

>  <ChemCompId>  (190) 
TUE

>  <PdbId>  (190) 
5ADC

>  <ResidueNumber>  (190) 
800

>  <InChI>  (190) 
InChI=1S/C17H16N4O/c1-19-8-13-6-15(10-20-9-13)22-11-12-2-3-14-4-5-17(18)21-16(14)7-12/h2-7,9-10H,1,8,11H2,(H2,18,21)

>  <InChIKey>  (190) 
JWSPKIZRSASLMF-UHFFFAOYSA-N

>  <SMILES>  (190) 
C=NCc1cc(cnc1)OCc2ccc3ccc(nc3c2)N

>  <MissingHeavyAtoms>  (190) 
0

>  <Model>  (190) 
1

>  <AltIds>  (190) 


>  <pKI>  (190) 
7.37

>  <ChemblID>  (190) 
-

>  <standardized_canonical_smiles>  (190) 
C=NCc1cncc(OCc2ccc3ccc(N)nc3c2)c1

$$$$
5UNX_8F1_B_803
     RDKit          3D

 26 28  0  0  0  0  0  0  0  0999 V2000
   17.9980    9.3990   58.9110 N   0  0  0  0  0  0  0  0  0  0  0  0
   17.7870    8.4550   58.2810 C   0  0  0  0  0  0  0  0  0  0  0  0
   17.4880    7.4410   57.5560 C   0  0  0  0  0  0  0  0  0  0  0  0
   18.2010    7.1730   56.3710 C   0  0  0  0  0  0  0  0  0  0  0  0
   17.9250    6.0250   55.6250 C   0  0  0  0  0  0  0  0  0  0  0  0
   18.6820    5.7620   54.3460 C   0  0  0  0  0  0  0  0  0  0  0  0
   19.2810    4.3500   54.3230 C   0  0  0  0  0  0  0  0  0  0  0  0
   18.5140    3.4850   53.4050 N   0  0  0  0  0  0  0  0  0  0  0  0
   19.3520    2.3800   52.8970 C   0  0  0  0  0  0  0  0  0  0  0  0
   16.5340    6.5550   58.0060 C   0  0  0  0  0  0  0  0  0  0  0  0
   16.2540    5.4220   57.2550 C   0  0  0  0  0  0  0  0  0  0  0  0
   16.9420    5.1460   56.0690 C   0  0  0  0  0  0  0  0  0  0  0  0
   15.2900    4.5710   57.7080 O   0  0  0  0  0  0  0  0  0  0  0  0
   14.1300    4.2660   56.9530 C   0  0  0  0  0  0  0  0  0  0  0  0
   13.3230    3.4140   57.8860 C   0  0  0  0  0  0  0  0  0  0  0  0
   13.1370    2.0650   57.6180 C   0  0  0  0  0  0  0  0  0  0  0  0
   12.7990    3.9910   59.0380 C   0  0  0  0  0  0  0  0  0  0  0  0
   12.0670    3.2250   59.9330 C   0  0  0  0  0  0  0  0  0  0  0  0
   11.8670    1.8780   59.6700 C   0  0  0  0  0  0  0  0  0  0  0  0
   11.1400    1.0990   60.5640 C   0  0  0  0  0  0  0  0  0  0  0  0
   10.5670    1.7040   61.8210 C   0  0  0  0  0  0  0  0  0  0  0  0
   10.9570   -0.2460   60.2700 C   0  0  0  0  0  0  0  0  0  0  0  0
   11.4990   -0.7890   59.0970 C   0  0  0  0  0  0  0  0  0  0  0  0
   11.3290   -2.1000   58.7900 N   0  0  0  0  0  0  0  0  0  0  0  0
   12.2080   -0.0130   58.2570 N   0  0  0  0  0  0  0  0  0  0  0  0
   12.4000    1.2990   58.5150 C   0  0  0  0  0  0  0  0  0  0  0  0
  2  1  3  0
  3  2  1  0
  4  3  2  0
 10  3  1  0
  5  4  1  0
  6  5  1  0
 12  5  2  0
  7  6  1  0
  8  7  1  0
  9  8  1  0
 11 10  2  0
 12 11  1  0
 13 11  1  0
 14 13  1  0
 15 14  1  0
 16 15  2  0
 17 15  1  0
 26 16  1  0
 18 17  2  0
 19 18  1  0
 20 19  1  0
 26 19  2  0
 21 20  1  0
 22 20  2  0
 23 22  1  0
 24 23  1  0
 25 23  2  0
 26 25  1  0
A    1
N28
A    2
C27
A    3
C23
A    4
C24
A    5
C25
A    6
C31
A    7
C32
A    8
N33
A    9
C34
A   10
C22
A   11
C21
A   12
C26
A   13
O13
A   14
C12
A   15
C08
A   16
C09
A   17
C07
A   18
C06
A   19
C05
A   20
C04
A   21
C11
A   22
C03
A   23
C02
A   24
N02
A   25
N01
A   26
C10
M  END
>  <Id>  (191) 
5UNX_8F1_B_803

>  <ChainId>  (191) 
B

>  <AsymId>  (191) 
J

>  <SeqNum>  (191) 
803

>  <Name>  (191) 
3-[(2-amino-4-methylquinolin-7-yl)methoxy]-5-[2-(methylamino)ethyl]benzonitrile

>  <SystematicName>  (191) 
3-[(2-azanyl-4-methyl-quinolin-7-yl)methoxy]-5-[2-(methylamino)ethyl]benzenecarbonitrile

>  <Synonyms>  (191) 


>  <Type>  (191) 
NON-POLYMER

>  <Formula>  (191) 
C21 H22 N4 O

>  <ObservedFormula>  (191) 
C21 N4 O

>  <MolecularWeight>  (191) 
346.426

>  <ModifiedDate>  (191) 
2017-04-28

>  <Parent>  (191) 


>  <OneLetterCode>  (191) 


>  <SubcomponentList>  (191) 


>  <AmbiguousFlag>  (191) 
N

>  <InsertionCode>  (191) 


>  <InstanceId>  (191) 
5UNX_8F1_B_803

>  <ChemCompId>  (191) 
8F1

>  <PdbId>  (191) 
5UNX

>  <ResidueNumber>  (191) 
803

>  <InChI>  (191) 
InChI=1S/C21H22N4O/c1-14-7-21(23)25-20-11-16(3-4-19(14)20)13-26-18-9-15(5-6-24-2)8-17(10-18)12-22/h3-4,7-11,24H,5-6,13H2,1-2H3,(H2,23,25)

>  <InChIKey>  (191) 
QKCPYJJSYKWGHS-UHFFFAOYSA-N

>  <SMILES>  (191) 
Cc1cc(nc2c1ccc(c2)COc3cc(cc(c3)C#N)CCNC)N

>  <MissingHeavyAtoms>  (191) 
0

>  <Model>  (191) 
1

>  <AltIds>  (191) 


>  <pKI>  (191) 
7.38

>  <ChemblID>  (191) 
-

>  <standardized_canonical_smiles>  (191) 
CNCCc1cc(C#N)cc(OCc2ccc3c(C)cc(N)nc3c2)c1

$$$$
6AUQ_BYJ_B_803
     RDKit          3D

 21 22  0  0  0  0  0  0  0  0999 V2000
   10.7940   -1.8900   58.2440 N   0  0  0  0  0  0  0  0  0  0  0  0
   11.3770   -0.8610   58.9100 C   0  0  0  0  0  0  0  0  0  0  0  0
   10.7690   -0.2550   60.0200 C   0  0  0  0  0  0  0  0  0  0  0  0
   11.4220    0.7960   60.6670 C   0  0  0  0  0  0  0  0  0  0  0  0
   12.6540    1.2100   60.1810 C   0  0  0  0  0  0  0  0  0  0  0  0
   10.8220    1.4870   61.8690 C   0  0  0  0  0  0  0  0  0  0  0  0
   12.5700   -0.4270   58.4650 N   0  0  0  0  0  0  0  0  0  0  0  0
   13.2180    0.5810   59.0690 C   0  0  0  0  0  0  0  0  0  0  0  0
   14.5620    1.0110   58.5140 C   0  0  0  0  0  0  0  0  0  0  0  0
   14.3830    1.8380   57.2440 C   0  0  0  0  0  0  0  0  0  0  0  0
   14.3290    3.3010   57.6160 C   0  0  0  0  0  0  0  0  0  0  0  0
   15.4830    4.1000   57.5260 C   0  0  0  0  0  0  0  0  0  0  0  0
   13.1330    3.8420   58.0760 C   0  0  0  0  0  0  0  0  0  0  0  0
   13.1060    5.1930   58.4380 C   0  0  0  0  0  0  0  0  0  0  0  0
   14.2490    5.9960   58.3440 C   0  0  0  0  0  0  0  0  0  0  0  0
   15.4500    5.4530   57.8880 C   0  0  0  0  0  0  0  0  0  0  0  0
   16.6880    6.3300   57.7760 C   0  0  0  0  0  0  0  0  0  0  0  0
   17.5310    6.3000   59.0530 C   0  0  0  0  0  0  0  0  0  0  0  0
   19.0000    6.6570   58.7950 C   0  0  0  0  0  0  0  0  0  0  0  0
   19.1690    8.0770   58.4250 N   0  0  0  0  0  0  0  0  0  0  0  0
   20.5750    8.3250   58.0470 C   0  0  0  0  0  0  0  0  0  0  0  0
  2  1  1  0
  3  2  2  0
  7  2  1  0
  4  3  1  0
  5  4  2  0
  6  4  1  0
  8  5  1  0
  8  7  2  0
  9  8  1  0
 10  9  1  0
 11 10  1  0
 12 11  2  0
 13 11  1  0
 16 12  1  0
 14 13  2  0
 15 14  1  0
 16 15  2  0
 17 16  1  0
 18 17  1  0
 19 18  1  0
 20 19  1  0
 21 20  1  0
A    1
N02
A    2
C02
A    3
C03
A    4
C04
A    5
C05
A    6
C07
A    7
N01
A    8
C06
A    9
C08
A   10
C09
A   11
C11
A   12
C16
A   13
C12
A   14
C13
A   15
C14
A   16
C15
A   17
C17
A   18
C18
A   19
C19
A   20
N20
A   21
C21
M  END
>  <Id>  (192) 
6AUQ_BYJ_B_803

>  <ChainId>  (192) 
B

>  <AsymId>  (192) 
J

>  <SeqNum>  (192) 
803

>  <Name>  (192) 
4-methyl-6-(2-{3-[3-(methylamino)propyl]phenyl}ethyl)pyridin-2-amine

>  <SystematicName>  (192) 
4-methyl-6-[2-[3-[3-(methylamino)propyl]phenyl]ethyl]pyridin-2-amine

>  <Synonyms>  (192) 


>  <Type>  (192) 
NON-POLYMER

>  <Formula>  (192) 
C18 H25 N3

>  <ObservedFormula>  (192) 
C18 N3

>  <MolecularWeight>  (192) 
283.411

>  <ModifiedDate>  (192) 
2018-07-06

>  <Parent>  (192) 


>  <OneLetterCode>  (192) 


>  <SubcomponentList>  (192) 


>  <AmbiguousFlag>  (192) 
N

>  <InsertionCode>  (192) 


>  <InstanceId>  (192) 
6AUQ_BYJ_B_803

>  <ChemCompId>  (192) 
BYJ

>  <PdbId>  (192) 
6AUQ

>  <ResidueNumber>  (192) 
803

>  <InChI>  (192) 
InChI=1S/C18H25N3/c1-14-11-17(21-18(19)12-14)9-8-16-6-3-5-15(13-16)7-4-10-20-2/h3,5-6,11-13,20H,4,7-10H2,1-2H3,(H2,19,21)

>  <InChIKey>  (192) 
CUTMJYPBBFYFJH-UHFFFAOYSA-N

>  <SMILES>  (192) 
Cc1cc(nc(c1)N)CCc2cccc(c2)CCCNC

>  <MissingHeavyAtoms>  (192) 
0

>  <Model>  (192) 
1

>  <AltIds>  (192) 


>  <pKI>  (192) 
7.32

>  <ChemblID>  (192) 
-

>  <standardized_canonical_smiles>  (192) 
CNCCCc1cccc(CCc2cc(C)cc(N)n2)c1

$$$$
6AUS_BYV_B_801
     RDKit          3D

 23 24  0  0  0  0  0  0  0  0999 V2000
   20.6130   -1.5180   57.8090 N   0  0  0  0  0  0  0  0  0  0  0  0
   19.7490   -0.7440   57.8050 C   0  0  0  0  0  0  0  0  0  0  0  0
   18.8170    0.1440   57.7760 C   0  0  0  0  0  0  0  0  0  0  0  0
   19.1240    1.3750   57.1940 C   0  0  0  0  0  0  0  0  0  0  0  0
   18.1760    2.3850   57.1740 C   0  0  0  0  0  0  0  0  0  0  0  0
   18.5410    3.6890   56.5190 C   0  0  0  0  0  0  0  0  0  0  0  0
   19.6870    3.3850   55.5620 C   0  0  0  0  0  0  0  0  0  0  0  0
   20.2800    4.6430   54.9370 C   0  0  0  0  0  0  0  0  0  0  0  0
   19.3340    5.2140   53.9620 N   0  0  0  0  0  0  0  0  0  0  0  0
   19.8370    6.5190   53.5000 C   0  0  0  0  0  0  0  0  0  0  0  0
   17.5650   -0.0570   58.3420 C   0  0  0  0  0  0  0  0  0  0  0  0
   16.6010    0.9520   58.3150 C   0  0  0  0  0  0  0  0  0  0  0  0
   16.9160    2.1770   57.7290 C   0  0  0  0  0  0  0  0  0  0  0  0
   15.2340    0.7220   58.9290 C   0  0  0  0  0  0  0  0  0  0  0  0
   14.0980    1.4150   58.1730 C   0  0  0  0  0  0  0  0  0  0  0  0
   12.8150    0.8320   58.7350 C   0  0  0  0  0  0  0  0  0  0  0  0
   12.3030   -0.3120   58.2260 N   0  0  0  0  0  0  0  0  0  0  0  0
   11.1770   -0.8760   58.7170 C   0  0  0  0  0  0  0  0  0  0  0  0
   10.7130   -2.0280   58.1610 N   0  0  0  0  0  0  0  0  0  0  0  0
   10.5130   -0.2770   59.7930 C   0  0  0  0  0  0  0  0  0  0  0  0
   11.0190    0.8980   60.3430 C   0  0  0  0  0  0  0  0  0  0  0  0
   12.1790    1.4440   59.8130 C   0  0  0  0  0  0  0  0  0  0  0  0
   10.3310    1.5780   61.5160 C   0  0  0  0  0  0  0  0  0  0  0  0
  2  1  3  0
  3  2  1  0
  4  3  2  0
 11  3  1  0
  5  4  1  0
  6  5  1  0
 13  5  2  0
  7  6  1  0
  8  7  1  0
  9  8  1  0
 10  9  1  0
 12 11  2  0
 13 12  1  0
 14 12  1  0
 15 14  1  0
 16 15  1  0
 17 16  2  0
 22 16  1  0
 18 17  1  0
 19 18  1  0
 20 18  2  0
 21 20  1  0
 22 21  2  0
 23 21  1  0
A    1
N17
A    2
C17
A    3
C13
A    4
C14
A    5
C15
A    6
C18
A    7
C19
A    8
C20
A    9
N21
A   10
C22
A   11
C12
A   12
C11
A   13
C16
A   14
C09
A   15
C08
A   16
C06
A   17
N01
A   18
C02
A   19
N02
A   20
C03
A   21
C04
A   22
C05
A   23
C07
M  END
>  <Id>  (193) 
6AUS_BYV_B_801

>  <ChainId>  (193) 
B

>  <AsymId>  (193) 
H

>  <SeqNum>  (193) 
801

>  <Name>  (193) 
3-[2-(6-amino-4-methylpyridin-2-yl)ethyl]-5-[3-(methylamino)propyl]benzonitrile

>  <SystematicName>  (193) 
3-[2-(6-azanyl-4-methyl-pyridin-2-yl)ethyl]-5-[3-(methylamino)propyl]benzenecarbonitrile

>  <Synonyms>  (193) 


>  <Type>  (193) 
NON-POLYMER

>  <Formula>  (193) 
C19 H24 N4

>  <ObservedFormula>  (193) 
C19 N4

>  <MolecularWeight>  (193) 
308.421

>  <ModifiedDate>  (193) 
2018-07-06

>  <Parent>  (193) 


>  <OneLetterCode>  (193) 


>  <SubcomponentList>  (193) 


>  <AmbiguousFlag>  (193) 
N

>  <InsertionCode>  (193) 


>  <InstanceId>  (193) 
6AUS_BYV_B_801

>  <ChemCompId>  (193) 
BYV

>  <PdbId>  (193) 
6AUS

>  <ResidueNumber>  (193) 
801

>  <InChI>  (193) 
InChI=1S/C19H24N4/c1-14-8-18(23-19(21)9-14)6-5-16-10-15(4-3-7-22-2)11-17(12-16)13-20/h8-12,22H,3-7H2,1-2H3,(H2,21,23)

>  <InChIKey>  (193) 
ZTTVVSIEPMOZBM-UHFFFAOYSA-N

>  <SMILES>  (193) 
Cc1cc(nc(c1)N)CCc2cc(cc(c2)C#N)CCCNC

>  <MissingHeavyAtoms>  (193) 
0

>  <Model>  (193) 
1

>  <AltIds>  (193) 


>  <pKI>  (193) 
6.6

>  <ChemblID>  (193) 
-

>  <standardized_canonical_smiles>  (193) 
CNCCCc1cc(C#N)cc(CCc2cc(C)cc(N)n2)c1

$$$$
5UO0_8FD_B_803
     RDKit          3D

 27 29  0  0  0  0  0  0  0  0999 V2000
   18.2510    9.6170   59.0870 N   0  0  0  0  0  0  0  0  0  0  0  0
   17.9380    8.7130   58.4390 C   0  0  0  0  0  0  0  0  0  0  0  0
   17.5770    7.7080   57.7310 C   0  0  0  0  0  0  0  0  0  0  0  0
   18.1770    7.4730   56.4780 C   0  0  0  0  0  0  0  0  0  0  0  0
   17.7820    6.3840   55.7170 C   0  0  0  0  0  0  0  0  0  0  0  0
   18.4290    6.1320   54.3720 C   0  0  0  0  0  0  0  0  0  0  0  0
   19.2410    4.8410   54.4510 C   0  0  0  0  0  0  0  0  0  0  0  0
   20.7360    5.1460   54.5070 C   0  0  0  0  0  0  0  0  0  0  0  0
   18.9280    3.9860   53.2890 N   0  0  0  0  0  0  0  0  0  0  0  0
   19.4460    2.6230   53.5030 C   0  0  0  0  0  0  0  0  0  0  0  0
   16.6000    6.8600   58.1980 C   0  0  0  0  0  0  0  0  0  0  0  0
   16.2010    5.7630   57.4270 C   0  0  0  0  0  0  0  0  0  0  0  0
   16.7930    5.5220   56.1860 C   0  0  0  0  0  0  0  0  0  0  0  0
   15.2310    4.9440   57.9120 O   0  0  0  0  0  0  0  0  0  0  0  0
   14.3200    4.2760   57.0560 C   0  0  0  0  0  0  0  0  0  0  0  0
   13.5220    3.4220   57.9930 C   0  0  0  0  0  0  0  0  0  0  0  0
   13.3070    2.0760   57.7310 C   0  0  0  0  0  0  0  0  0  0  0  0
   13.0380    4.0070   59.1590 C   0  0  0  0  0  0  0  0  0  0  0  0
   12.3190    3.2480   60.0740 C   0  0  0  0  0  0  0  0  0  0  0  0
   12.0860    1.9010   59.8130 C   0  0  0  0  0  0  0  0  0  0  0  0
   11.3650    1.1280   60.7200 C   0  0  0  0  0  0  0  0  0  0  0  0
   10.8440    1.7470   61.9970 C   0  0  0  0  0  0  0  0  0  0  0  0
   11.1460   -0.2160   60.4350 C   0  0  0  0  0  0  0  0  0  0  0  0
   11.6580   -0.7570   59.2430 C   0  0  0  0  0  0  0  0  0  0  0  0
   11.4670   -2.0620   58.9240 N   0  0  0  0  0  0  0  0  0  0  0  0
   12.3520    0.0170   58.3860 N   0  0  0  0  0  0  0  0  0  0  0  0
   12.5810    1.3210   58.6430 C   0  0  0  0  0  0  0  0  0  0  0  0
  2  1  3  0
  3  2  1  0
  4  3  2  0
 11  3  1  0
  5  4  1  0
  6  5  1  0
 13  5  2  0
  7  6  1  0
  8  7  1  0
  9  7  1  0
 10  9  1  0
 12 11  2  0
 13 12  1  0
 14 12  1  0
 15 14  1  0
 16 15  1  0
 17 16  2  0
 18 16  1  0
 27 17  1  0
 19 18  2  0
 20 19  1  0
 21 20  1  0
 27 20  2  0
 22 21  1  0
 23 21  2  0
 24 23  1  0
 25 24  1  0
 26 24  2  0
 27 26  1  0
A    1
N28
A    2
C27
A    3
C23
A    4
C24
A    5
C25
A    6
C31
A    7
C32
A    8
C33
A    9
N34
A   10
C35
A   11
C22
A   12
C21
A   13
C26
A   14
O13
A   15
C12
A   16
C08
A   17
C09
A   18
C07
A   19
C06
A   20
C05
A   21
C04
A   22
C11
A   23
C03
A   24
C02
A   25
N02
A   26
N01
A   27
C10
M  END
>  <Id>  (194) 
5UO0_8FD_B_803

>  <ChainId>  (194) 
B

>  <AsymId>  (194) 
I

>  <SeqNum>  (194) 
803

>  <Name>  (194) 
3-[(2-amino-4-methylquinolin-7-yl)methoxy]-5-[(2S)-2-(methylamino)propyl]benzonitrile

>  <SystematicName>  (194) 
3-[(2-azanyl-4-methyl-quinolin-7-yl)methoxy]-5-[(2~{S})-2-(methylamino)propyl]benzenecarbonitrile

>  <Synonyms>  (194) 


>  <Type>  (194) 
NON-POLYMER

>  <Formula>  (194) 
C22 H24 N4 O

>  <ObservedFormula>  (194) 
C22 N4 O

>  <MolecularWeight>  (194) 
360.452

>  <ModifiedDate>  (194) 
2017-04-28

>  <Parent>  (194) 


>  <OneLetterCode>  (194) 


>  <SubcomponentList>  (194) 


>  <AmbiguousFlag>  (194) 
N

>  <InsertionCode>  (194) 


>  <InstanceId>  (194) 
5UO0_8FD_B_803

>  <ChemCompId>  (194) 
8FD

>  <PdbId>  (194) 
5UO0

>  <ResidueNumber>  (194) 
803

>  <InChI>  (194) 
InChI=1S/C22H24N4O/c1-14-6-22(24)26-21-11-16(4-5-20(14)21)13-27-19-9-17(7-15(2)25-3)8-18(10-19)12-23/h4-6,8-11,15,25H,7,13H2,1-3H3,(H2,24,26)/t15-/m0/s1

>  <InChIKey>  (194) 
PUGNZMCPLRURSU-HNNXBMFYSA-N

>  <SMILES>  (194) 
Cc1cc(nc2c1ccc(c2)COc3cc(cc(c3)C#N)C[C@H](C)NC)N

>  <MissingHeavyAtoms>  (194) 
0

>  <Model>  (194) 
1

>  <AltIds>  (194) 


>  <pKI>  (194) 
7.3

>  <ChemblID>  (194) 
-

>  <standardized_canonical_smiles>  (194) 
CN[C@@H](C)Cc1cc(C#N)cc(OCc2ccc3c(C)cc(N)nc3c2)c1

$$$$
5UNY_8FD_B_804
     RDKit          3D

 27 29  0  0  0  0  0  0  0  0999 V2000
   18.0790    9.8130   59.3620 N   0  0  0  0  0  0  0  0  0  0  0  0
   17.7670    8.9050   58.7190 C   0  0  0  0  0  0  0  0  0  0  0  0
   17.4270    7.8580   58.0570 C   0  0  0  0  0  0  0  0  0  0  0  0
   18.1100    7.5370   56.9050 C   0  0  0  0  0  0  0  0  0  0  0  0
   17.7740    6.4240   56.1530 C   0  0  0  0  0  0  0  0  0  0  0  0
   18.5460    6.0870   54.8930 C   0  0  0  0  0  0  0  0  0  0  0  0
   19.7850    5.2610   55.2250 C   0  0  0  0  0  0  0  0  0  0  0  0
   20.9590    6.1470   55.6350 C   0  0  0  0  0  0  0  0  0  0  0  0
   20.1740    4.4580   54.0480 N   0  0  0  0  0  0  0  0  0  0  0  0
   21.3610    3.6460   54.3650 C   0  0  0  0  0  0  0  0  0  0  0  0
   16.3610    7.0580   58.4870 C   0  0  0  0  0  0  0  0  0  0  0  0
   16.0160    5.9350   57.7290 C   0  0  0  0  0  0  0  0  0  0  0  0
   16.7210    5.6140   56.5640 C   0  0  0  0  0  0  0  0  0  0  0  0
   14.9780    5.1630   58.1620 O   0  0  0  0  0  0  0  0  0  0  0  0
   14.3080    4.2440   57.3120 C   0  0  0  0  0  0  0  0  0  0  0  0
   13.4480    3.3960   58.2120 C   0  0  0  0  0  0  0  0  0  0  0  0
   13.2530    2.0530   57.9340 C   0  0  0  0  0  0  0  0  0  0  0  0
   12.8720    3.9640   59.3430 C   0  0  0  0  0  0  0  0  0  0  0  0
   12.0940    3.1920   60.1950 C   0  0  0  0  0  0  0  0  0  0  0  0
   11.8950    1.8490   59.9080 C   0  0  0  0  0  0  0  0  0  0  0  0
   11.1220    1.0640   60.7490 C   0  0  0  0  0  0  0  0  0  0  0  0
   10.4970    1.6680   61.9780 C   0  0  0  0  0  0  0  0  0  0  0  0
   10.9320   -0.2760   60.4390 C   0  0  0  0  0  0  0  0  0  0  0  0
   11.5270   -0.8070   59.2950 C   0  0  0  0  0  0  0  0  0  0  0  0
   11.3550   -2.1140   58.9750 N   0  0  0  0  0  0  0  0  0  0  0  0
   12.2810   -0.0240   58.4970 N   0  0  0  0  0  0  0  0  0  0  0  0
   12.4720    1.2810   58.7790 C   0  0  0  0  0  0  0  0  0  0  0  0
  2  1  3  0
  3  2  1  0
  4  3  2  0
 11  3  1  0
  5  4  1  0
  6  5  1  0
 13  5  2  0
  7  6  1  0
  8  7  1  0
  9  7  1  0
 10  9  1  0
 12 11  2  0
 13 12  1  0
 14 12  1  0
 15 14  1  0
 16 15  1  0
 17 16  2  0
 18 16  1  0
 27 17  1  0
 19 18  2  0
 20 19  1  0
 21 20  1  0
 27 20  2  0
 22 21  1  0
 23 21  2  0
 24 23  1  0
 25 24  1  0
 26 24  2  0
 27 26  1  0
A    1
N28
A    2
C27
A    3
C23
A    4
C24
A    5
C25
A    6
C31
A    7
C32
A    8
C33
A    9
N34
A   10
C35
A   11
C22
A   12
C21
A   13
C26
A   14
O13
A   15
C12
A   16
C08
A   17
C09
A   18
C07
A   19
C06
A   20
C05
A   21
C04
A   22
C11
A   23
C03
A   24
C02
A   25
N02
A   26
N01
A   27
C10
M  END
>  <Id>  (195) 
5UNY_8FD_B_804

>  <ChainId>  (195) 
B

>  <AsymId>  (195) 
L

>  <SeqNum>  (195) 
804

>  <Name>  (195) 
3-[(2-amino-4-methylquinolin-7-yl)methoxy]-5-[(2S)-2-(methylamino)propyl]benzonitrile

>  <SystematicName>  (195) 
3-[(2-azanyl-4-methyl-quinolin-7-yl)methoxy]-5-[(2~{S})-2-(methylamino)propyl]benzenecarbonitrile

>  <Synonyms>  (195) 


>  <Type>  (195) 
NON-POLYMER

>  <Formula>  (195) 
C22 H24 N4 O

>  <ObservedFormula>  (195) 
C22 N4 O

>  <MolecularWeight>  (195) 
360.452

>  <ModifiedDate>  (195) 
2017-04-28

>  <Parent>  (195) 


>  <OneLetterCode>  (195) 


>  <SubcomponentList>  (195) 


>  <AmbiguousFlag>  (195) 
N

>  <InsertionCode>  (195) 


>  <InstanceId>  (195) 
5UNY_8FD_B_804

>  <ChemCompId>  (195) 
8FD

>  <PdbId>  (195) 
5UNY

>  <ResidueNumber>  (195) 
804

>  <InChI>  (195) 
InChI=1S/C22H24N4O/c1-14-6-22(24)26-21-11-16(4-5-20(14)21)13-27-19-9-17(7-15(2)25-3)8-18(10-19)12-23/h4-6,8-11,15,25H,7,13H2,1-3H3,(H2,24,26)/t15-/m0/s1

>  <InChIKey>  (195) 
PUGNZMCPLRURSU-HNNXBMFYSA-N

>  <SMILES>  (195) 
Cc1cc(nc2c1ccc(c2)COc3cc(cc(c3)C#N)C[C@H](C)NC)N

>  <MissingHeavyAtoms>  (195) 
0

>  <Model>  (195) 
1

>  <AltIds>  (195) 


>  <pKI>  (195) 
7.3

>  <ChemblID>  (195) 
-

>  <standardized_canonical_smiles>  (195) 
CN[C@@H](C)Cc1cc(C#N)cc(OCc2ccc3c(C)cc(N)nc3c2)c1

$$$$
5UNY_M4R_B_803
     RDKit          3D

 27 29  0  0  0  0  0  0  0  0999 V2000
   18.2400    9.8250   59.2700 N   0  0  0  0  0  0  0  0  0  0  0  0
   17.9510    8.8870   58.6580 C   0  0  0  0  0  0  0  0  0  0  0  0
   17.5840    7.8580   57.9820 C   0  0  0  0  0  0  0  0  0  0  0  0
   18.2380    7.5300   56.7860 C   0  0  0  0  0  0  0  0  0  0  0  0
   17.8170    6.4280   56.0450 C   0  0  0  0  0  0  0  0  0  0  0  0
   18.5140    6.0380   54.7600 C   0  0  0  0  0  0  0  0  0  0  0  0
   19.9510    5.5690   54.9960 C   0  0  0  0  0  0  0  0  0  0  0  0
   20.1090    4.7710   56.2860 C   0  0  0  0  0  0  0  0  0  0  0  0
   20.3590    4.7260   53.8550 N   0  0  0  0  0  0  0  0  0  0  0  0
   21.7430    4.2500   54.0330 C   0  0  0  0  0  0  0  0  0  0  0  0
   16.5130    7.1030   58.4180 C   0  0  0  0  0  0  0  0  0  0  0  0
   16.0870    6.0020   57.6750 C   0  0  0  0  0  0  0  0  0  0  0  0
   16.7400    5.6640   56.4890 C   0  0  0  0  0  0  0  0  0  0  0  0
   15.0290    5.2630   58.1270 O   0  0  0  0  0  0  0  0  0  0  0  0
   14.3710    4.3340   57.2760 C   0  0  0  0  0  0  0  0  0  0  0  0
   13.5000    3.5010   58.1760 C   0  0  0  0  0  0  0  0  0  0  0  0
   13.2920    2.1600   57.9060 C   0  0  0  0  0  0  0  0  0  0  0  0
   12.9280    4.0870   59.2990 C   0  0  0  0  0  0  0  0  0  0  0  0
   12.1370    3.3300   60.1540 C   0  0  0  0  0  0  0  0  0  0  0  0
   11.9250    1.9870   59.8760 C   0  0  0  0  0  0  0  0  0  0  0  0
   11.1410    1.2140   60.7170 C   0  0  0  0  0  0  0  0  0  0  0  0
   10.5180    1.8320   61.9400 C   0  0  0  0  0  0  0  0  0  0  0  0
   10.9400   -0.1270   60.4110 C   0  0  0  0  0  0  0  0  0  0  0  0
   11.5340   -0.6710   59.2720 C   0  0  0  0  0  0  0  0  0  0  0  0
   11.3530   -1.9780   58.9540 N   0  0  0  0  0  0  0  0  0  0  0  0
   12.2990    0.1010   58.4750 N   0  0  0  0  0  0  0  0  0  0  0  0
   12.5010    1.4060   58.7530 C   0  0  0  0  0  0  0  0  0  0  0  0
  2  1  3  0
  3  2  1  0
  4  3  2  0
 11  3  1  0
  5  4  1  0
  6  5  1  0
 13  5  2  0
  7  6  1  0
  8  7  1  0
  9  7  1  0
 10  9  1  0
 12 11  2  0
 13 12  1  0
 14 12  1  0
 15 14  1  0
 16 15  1  0
 17 16  2  0
 18 16  1  0
 27 17  1  0
 19 18  2  0
 20 19  1  0
 21 20  1  0
 27 20  2  0
 22 21  1  0
 23 21  2  0
 24 23  1  0
 25 24  1  0
 26 24  2  0
 27 26  1  0
A    1
N28
A    2
C27
A    3
C23
A    4
C24
A    5
C25
A    6
C29
A    7
C30
A    8
C31
A    9
N32
A   10
C33
A   11
C22
A   12
C21
A   13
C26
A   14
O13
A   15
C12
A   16
C08
A   17
C09
A   18
C07
A   19
C06
A   20
C05
A   21
C04
A   22
C11
A   23
C03
A   24
C02
A   25
N02
A   26
N01
A   27
C10
M  END
>  <Id>  (196) 
5UNY_M4R_B_803

>  <ChainId>  (196) 
B

>  <AsymId>  (196) 
K

>  <SeqNum>  (196) 
803

>  <Name>  (196) 
3-[(2-amino-4-methylquinolin-7-yl)methoxy]-5-[(2R)-2-(methylamino)propyl]benzonitrile

>  <SystematicName>  (196) 
3-[(2-azanyl-4-methyl-quinolin-7-yl)methoxy]-5-[(2~{R})-2-(methylamino)propyl]benzenecarbonitrile

>  <Synonyms>  (196) 


>  <Type>  (196) 
NON-POLYMER

>  <Formula>  (196) 
C22 H24 N4 O

>  <ObservedFormula>  (196) 
C22 N4 O

>  <MolecularWeight>  (196) 
360.452

>  <ModifiedDate>  (196) 
2017-04-28

>  <Parent>  (196) 


>  <OneLetterCode>  (196) 


>  <SubcomponentList>  (196) 


>  <AmbiguousFlag>  (196) 
N

>  <InsertionCode>  (196) 


>  <InstanceId>  (196) 
5UNY_M4R_B_803

>  <ChemCompId>  (196) 
M4R

>  <PdbId>  (196) 
5UNY

>  <ResidueNumber>  (196) 
803

>  <InChI>  (196) 
InChI=1S/C22H24N4O/c1-14-6-22(24)26-21-11-16(4-5-20(14)21)13-27-19-9-17(7-15(2)25-3)8-18(10-19)12-23/h4-6,8-11,15,25H,7,13H2,1-3H3,(H2,24,26)/t15-/m1/s1

>  <InChIKey>  (196) 
PUGNZMCPLRURSU-OAHLLOKOSA-N

>  <SMILES>  (196) 
Cc1cc(nc2c1ccc(c2)COc3cc(cc(c3)C#N)C[C@@H](C)NC)N

>  <MissingHeavyAtoms>  (196) 
0

>  <Model>  (196) 
1

>  <AltIds>  (196) 


>  <pKI>  (196) 
7.26

>  <ChemblID>  (196) 
-

>  <standardized_canonical_smiles>  (196) 
CN[C@H](C)Cc1cc(C#N)cc(OCc2ccc3c(C)cc(N)nc3c2)c1

$$$$
5UNZ_M4R_B_803
     RDKit          3D

 27 29  0  0  0  0  0  0  0  0999 V2000
   17.9520    9.5850   59.4190 N   0  0  0  0  0  0  0  0  0  0  0  0
   17.7300    8.6810   58.7330 C   0  0  0  0  0  0  0  0  0  0  0  0
   17.4790    7.6780   57.9740 C   0  0  0  0  0  0  0  0  0  0  0  0
   18.1200    7.5550   56.7380 C   0  0  0  0  0  0  0  0  0  0  0  0
   17.8860    6.4520   55.9150 C   0  0  0  0  0  0  0  0  0  0  0  0
   18.5880    6.3660   54.5710 C   0  0  0  0  0  0  0  0  0  0  0  0
   19.3350    5.0530   54.3140 C   0  0  0  0  0  0  0  0  0  0  0  0
   20.2540    4.6830   55.4790 C   0  0  0  0  0  0  0  0  0  0  0  0
   18.3900    3.9460   54.0180 N   0  0  0  0  0  0  0  0  0  0  0  0
   19.1170    2.7370   53.5810 C   0  0  0  0  0  0  0  0  0  0  0  0
   16.5980    6.6910   58.4060 C   0  0  0  0  0  0  0  0  0  0  0  0
   16.3600    5.5950   57.5800 C   0  0  0  0  0  0  0  0  0  0  0  0
   16.9880    5.4730   56.3390 C   0  0  0  0  0  0  0  0  0  0  0  0
   15.4930    4.6240   57.9900 O   0  0  0  0  0  0  0  0  0  0  0  0
   14.2370    4.4560   57.3480 C   0  0  0  0  0  0  0  0  0  0  0  0
   13.4320    3.5980   58.2780 C   0  0  0  0  0  0  0  0  0  0  0  0
   13.2480    2.2590   57.9780 C   0  0  0  0  0  0  0  0  0  0  0  0
   12.9080    4.1550   59.4440 C   0  0  0  0  0  0  0  0  0  0  0  0
   12.1760    3.3640   60.3240 C   0  0  0  0  0  0  0  0  0  0  0  0
   11.9850    2.0170   60.0260 C   0  0  0  0  0  0  0  0  0  0  0  0
   11.2570    1.2090   60.8950 C   0  0  0  0  0  0  0  0  0  0  0  0
   10.6830    1.7870   62.1700 C   0  0  0  0  0  0  0  0  0  0  0  0
   11.0730   -0.1320   60.5730 C   0  0  0  0  0  0  0  0  0  0  0  0
   11.6220   -0.6320   59.3770 C   0  0  0  0  0  0  0  0  0  0  0  0
   11.4700   -1.9290   59.0200 N   0  0  0  0  0  0  0  0  0  0  0  0
   12.3310    0.1720   58.5660 N   0  0  0  0  0  0  0  0  0  0  0  0
   12.5190    1.4730   58.8600 C   0  0  0  0  0  0  0  0  0  0  0  0
  2  1  3  0
  3  2  1  0
  4  3  2  0
 11  3  1  0
  5  4  1  0
  6  5  1  0
 13  5  2  0
  7  6  1  0
  8  7  1  0
  9  7  1  0
 10  9  1  0
 12 11  2  0
 13 12  1  0
 14 12  1  0
 15 14  1  0
 16 15  1  0
 17 16  2  0
 18 16  1  0
 27 17  1  0
 19 18  2  0
 20 19  1  0
 21 20  1  0
 27 20  2  0
 22 21  1  0
 23 21  2  0
 24 23  1  0
 25 24  1  0
 26 24  2  0
 27 26  1  0
A    1
N28
A    2
C27
A    3
C23
A    4
C24
A    5
C25
A    6
C29
A    7
C30
A    8
C31
A    9
N32
A   10
C33
A   11
C22
A   12
C21
A   13
C26
A   14
O13
A   15
C12
A   16
C08
A   17
C09
A   18
C07
A   19
C06
A   20
C05
A   21
C04
A   22
C11
A   23
C03
A   24
C02
A   25
N02
A   26
N01
A   27
C10
M  END
>  <Id>  (197) 
5UNZ_M4R_B_803

>  <ChainId>  (197) 
B

>  <AsymId>  (197) 
J

>  <SeqNum>  (197) 
803

>  <Name>  (197) 
3-[(2-amino-4-methylquinolin-7-yl)methoxy]-5-[(2R)-2-(methylamino)propyl]benzonitrile

>  <SystematicName>  (197) 
3-[(2-azanyl-4-methyl-quinolin-7-yl)methoxy]-5-[(2~{R})-2-(methylamino)propyl]benzenecarbonitrile

>  <Synonyms>  (197) 


>  <Type>  (197) 
NON-POLYMER

>  <Formula>  (197) 
C22 H24 N4 O

>  <ObservedFormula>  (197) 
C22 N4 O

>  <MolecularWeight>  (197) 
360.452

>  <ModifiedDate>  (197) 
2017-04-28

>  <Parent>  (197) 


>  <OneLetterCode>  (197) 


>  <SubcomponentList>  (197) 


>  <AmbiguousFlag>  (197) 
N

>  <InsertionCode>  (197) 


>  <InstanceId>  (197) 
5UNZ_M4R_B_803

>  <ChemCompId>  (197) 
M4R

>  <PdbId>  (197) 
5UNZ

>  <ResidueNumber>  (197) 
803

>  <InChI>  (197) 
InChI=1S/C22H24N4O/c1-14-6-22(24)26-21-11-16(4-5-20(14)21)13-27-19-9-17(7-15(2)25-3)8-18(10-19)12-23/h4-6,8-11,15,25H,7,13H2,1-3H3,(H2,24,26)/t15-/m1/s1

>  <InChIKey>  (197) 
PUGNZMCPLRURSU-OAHLLOKOSA-N

>  <SMILES>  (197) 
Cc1cc(nc2c1ccc(c2)COc3cc(cc(c3)C#N)C[C@@H](C)NC)N

>  <MissingHeavyAtoms>  (197) 
0

>  <Model>  (197) 
1

>  <AltIds>  (197) 


>  <pKI>  (197) 
7.26

>  <ChemblID>  (197) 
-

>  <standardized_canonical_smiles>  (197) 
CN[C@H](C)Cc1cc(C#N)cc(OCc2ccc3c(C)cc(N)nc3c2)c1

$$$$
6AUR_W68_B_803
     RDKit          3D

 22 23  0  0  0  0  0  0  0  0999 V2000
   19.7880   -0.3530   60.2580 F   0  0  0  0  0  0  0  0  0  0  0  0
   18.8890    0.2830   59.4850 C   0  0  0  0  0  0  0  0  0  0  0  0
   19.3040    1.0610   58.4010 C   0  0  0  0  0  0  0  0  0  0  0  0
   18.3690    1.7190   57.5990 C   0  0  0  0  0  0  0  0  0  0  0  0
   18.8000    2.5650   56.4150 C   0  0  0  0  0  0  0  0  0  0  0  0
   19.7090    3.7170   56.8270 C   0  0  0  0  0  0  0  0  0  0  0  0
   20.1850    4.4890   55.5920 C   0  0  0  0  0  0  0  0  0  0  0  0
   19.0270    4.9080   54.7760 N   0  0  0  0  0  0  0  0  0  0  0  0
   19.4890    5.6080   53.5640 C   0  0  0  0  0  0  0  0  0  0  0  0
   17.5320    0.1630   59.7650 C   0  0  0  0  0  0  0  0  0  0  0  0
   16.5940    0.8170   58.9700 C   0  0  0  0  0  0  0  0  0  0  0  0
   17.0110    1.5920   57.8890 C   0  0  0  0  0  0  0  0  0  0  0  0
   15.1360    0.6520   59.3160 C   0  0  0  0  0  0  0  0  0  0  0  0
   14.1630    1.3590   58.3830 C   0  0  0  0  0  0  0  0  0  0  0  0
   12.8450    0.8490   58.9180 C   0  0  0  0  0  0  0  0  0  0  0  0
   12.3020   -0.2700   58.4020 N   0  0  0  0  0  0  0  0  0  0  0  0
   11.1470   -0.7900   58.8630 C   0  0  0  0  0  0  0  0  0  0  0  0
   10.6710   -1.9240   58.2660 N   0  0  0  0  0  0  0  0  0  0  0  0
   10.4840   -0.1740   59.9310 C   0  0  0  0  0  0  0  0  0  0  0  0
   11.0350    0.9810   60.4910 C   0  0  0  0  0  0  0  0  0  0  0  0
   12.2250    1.4840   59.9850 C   0  0  0  0  0  0  0  0  0  0  0  0
   10.3600    1.7010   61.6360 C   0  0  0  0  0  0  0  0  0  0  0  0
  2  1  1  0
  3  2  2  0
 10  2  1  0
  4  3  1  0
  5  4  1  0
 12  4  2  0
  6  5  1  0
  7  6  1  0
  8  7  1  0
  9  8  1  0
 11 10  2  0
 12 11  1  0
 13 11  1  0
 14 13  1  0
 15 14  1  0
 16 15  2  0
 21 15  1  0
 17 16  1  0
 18 17  1  0
 19 17  2  0
 20 19  1  0
 21 20  2  0
 22 20  1  0
A    1
F13
A    2
C13
A    3
C14
A    4
C15
A    5
C17
A    6
C18
A    7
C19
A    8
N20
A    9
C21
A   10
C12
A   11
C11
A   12
C16
A   13
C09
A   14
C08
A   15
C06
A   16
N01
A   17
C02
A   18
N02
A   19
C03
A   20
C04
A   21
C05
A   22
C07
M  END
>  <Id>  (198) 
6AUR_W68_B_803

>  <ChainId>  (198) 
B

>  <AsymId>  (198) 
J

>  <SeqNum>  (198) 
803

>  <Name>  (198) 
6-(2-{3-fluoro-5-[3-(methylamino)propyl]phenyl}ethyl)-4-methylpyridin-2-amine

>  <SystematicName>  (198) 
6-[2-[3-fluoranyl-5-[3-(methylamino)propyl]phenyl]ethyl]-4-methyl-pyridin-2-amine

>  <Synonyms>  (198) 


>  <Type>  (198) 
NON-POLYMER

>  <Formula>  (198) 
C18 H24 F N3

>  <ObservedFormula>  (198) 
C18 F N3

>  <MolecularWeight>  (198) 
301.402

>  <ModifiedDate>  (198) 
2018-07-06

>  <Parent>  (198) 


>  <OneLetterCode>  (198) 


>  <SubcomponentList>  (198) 


>  <AmbiguousFlag>  (198) 
N

>  <InsertionCode>  (198) 


>  <InstanceId>  (198) 
6AUR_W68_B_803

>  <ChemCompId>  (198) 
W68

>  <PdbId>  (198) 
6AUR

>  <ResidueNumber>  (198) 
803

>  <InChI>  (198) 
InChI=1S/C18H24FN3/c1-13-8-17(22-18(20)9-13)6-5-15-10-14(4-3-7-21-2)11-16(19)12-15/h8-12,21H,3-7H2,1-2H3,(H2,20,22)

>  <InChIKey>  (198) 
PEJWJTGGAYICCM-UHFFFAOYSA-N

>  <SMILES>  (198) 
Cc1cc(nc(c1)N)CCc2cc(cc(c2)F)CCCNC

>  <MissingHeavyAtoms>  (198) 
0

>  <Model>  (198) 
1

>  <AltIds>  (198) 


>  <pKI>  (198) 
7.39

>  <ChemblID>  (198) 
-

>  <standardized_canonical_smiles>  (198) 
CNCCCc1cc(F)cc(CCc2cc(C)cc(N)n2)c1

$$$$
4FW0_5KJ_B_804
     RDKit          3D

 14 13  0  0  0  0  0  0  0  0999 V2000
   17.9210   -2.6630   57.0840 O   0  0  0  0  0  0  0  0  0  0  0  0
   17.9800   -1.6720   57.7980 C   0  0  0  0  0  0  0  0  0  0  0  0
   18.7750   -1.6990   58.7500 O   0  0  0  0  0  0  0  0  0  0  0  0
   17.0930   -0.4650   57.4920 C   0  0  0  0  0  0  0  0  0  0  0  0
   16.4380   -0.6010   56.1990 N   0  0  0  0  0  0  0  0  0  0  0  0
   16.0460   -0.3150   58.6000 C   0  0  0  0  0  0  0  0  0  0  0  0
   14.9720    0.7290   58.2920 C   0  0  0  0  0  0  0  0  0  0  0  0
   13.7550    0.3230   59.1190 C   0  0  0  0  0  0  0  0  0  0  0  0
   12.5330    0.6860   58.4110 N   0  0  0  0  0  0  0  0  0  0  0  0
   12.3950    2.1510   58.4770 C   0  0  0  0  0  0  0  0  0  0  0  0
   11.5100    0.0250   58.9860 C   0  0  0  0  0  0  0  0  0  0  0  0
   11.1700   -1.1360   58.5590 N   0  0  0  0  0  0  0  0  0  0  0  0
   10.8730    0.5660   60.0410 N   0  0  0  0  0  0  0  0  0  0  0  0
   10.4930   -0.2580   61.1030 O   0  0  0  0  0  0  0  0  0  0  0  0
  2  1  2  0
  3  2  1  0
  4  2  1  0
  5  4  1  0
  6  4  1  0
  7  6  1  0
  8  7  1  0
  9  8  1  0
 10  9  1  0
 11  9  1  0
 12 11  2  0
 13 11  1  0
 14 13  1  0
A    1
OA2
A    2
C
A    3
OA1
A    4
CA
A    5
N
A    6
CB
A    7
CG
A    8
CD
A    9
NE
A   10
C1
A   11
CZ
A   12
NH1
A   13
NH2
A   14
OH
M  END
>  <Id>  (199) 
4FW0_5KJ_B_804

>  <ChainId>  (199) 
B

>  <AsymId>  (199) 
K

>  <SeqNum>  (199) 
804

>  <Name>  (199) 
N~5~-(N-hydroxycarbamimidoyl)-N~5~-methyl-L-ornithine

>  <SystematicName>  (199) 
(2S)-2-azanyl-5-[methyl-(N-oxidanylcarbamimidoyl)amino]pentanoic acid

>  <Synonyms>  (199) 


>  <Type>  (199) 
NON-POLYMER

>  <Formula>  (199) 
C7 H16 N4 O3

>  <ObservedFormula>  (199) 
C7 N4 O3

>  <MolecularWeight>  (199) 
204.227

>  <ModifiedDate>  (199) 
2013-05-10

>  <Parent>  (199) 


>  <OneLetterCode>  (199) 


>  <SubcomponentList>  (199) 


>  <AmbiguousFlag>  (199) 
N

>  <InsertionCode>  (199) 


>  <InstanceId>  (199) 
4FW0_5KJ_B_804

>  <ChemCompId>  (199) 
5KJ

>  <PdbId>  (199) 
4FW0

>  <ResidueNumber>  (199) 
804

>  <InChI>  (199) 
InChI=1S/C7H16N4O3/c1-11(7(9)10-14)4-2-3-5(8)6(12)13/h5,14H,2-4,8H2,1H3,(H2,9,10)(H,12,13)/t5-/m0/s1

>  <InChIKey>  (199) 
AUQNEMXAWPGGNP-YFKPBYRVSA-N

>  <SMILES>  (199) 
[H]/N=C(\NO)/N(C)CCC[C@@H](C(=O)O)N

>  <MissingHeavyAtoms>  (199) 
0

>  <Model>  (199) 
1

>  <AltIds>  (199) 


>  <pKI>  (199) 
2.0

>  <ChemblID>  (199) 
-

>  <standardized_canonical_smiles>  (199) 
CN(CCC[C@H](N)C(=O)O)C(=N)NO

$$$$
5VUO_9OS_B_803
     RDKit          3D

 24 26  0  0  0  0  0  0  0  0999 V2000
   12.8510    1.5310   58.5410 C   0  0  0  0  0  0  0  0  0  0  0  0
   15.7540    3.6880   57.5520 C   0  0  0  0  0  0  0  0  0  0  0  0
   11.1330   -1.6050   58.7890 N   0  0  0  0  0  0  0  0  0  0  0  0
   11.4010   -0.2740   58.9240 C   0  0  0  0  0  0  0  0  0  0  0  0
   12.5580    0.2140   58.4410 N   0  0  0  0  0  0  0  0  0  0  0  0
   10.5050    0.5930   59.5570 C   0  0  0  0  0  0  0  0  0  0  0  0
   10.7650    1.9590   59.6650 C   0  0  0  0  0  0  0  0  0  0  0  0
   11.9730    2.4320   59.1470 C   0  0  0  0  0  0  0  0  0  0  0  0
   12.3120    3.7840   59.2370 C   0  0  0  0  0  0  0  0  0  0  0  0
   13.5280    4.2300   58.7040 C   0  0  0  0  0  0  0  0  0  0  0  0
   14.4030    3.3170   58.1070 C   0  0  0  0  0  0  0  0  0  0  0  0
   14.0660    1.9710   58.0420 C   0  0  0  0  0  0  0  0  0  0  0  0
   15.8460    4.7230   56.5250 N   0  0  0  0  0  0  0  0  0  0  0  0
   17.3080    4.8210   56.4110 C   0  0  0  0  0  0  0  0  0  0  0  0
   17.8310    5.7190   55.3040 C   0  0  0  0  0  0  0  0  0  0  0  0
   19.2590    6.0320   55.7260 C   0  0  0  0  0  0  0  0  0  0  0  0
   20.0880    6.6990   54.6610 C   0  0  0  0  0  0  0  0  0  0  0  0
   21.1240    5.9860   54.0670 C   0  0  0  0  0  0  0  0  0  0  0  0
   19.8440    8.0080   54.2830 C   0  0  0  0  0  0  0  0  0  0  0  0
   18.8330    8.7320   54.8590 O   0  0  0  0  0  0  0  0  0  0  0  0
   18.5590   10.0430   54.3790 C   0  0  0  0  0  0  0  0  0  0  0  0
   20.6480    8.5780   53.3010 C   0  0  0  0  0  0  0  0  0  0  0  0
   21.6660    7.8190   52.7300 C   0  0  0  0  0  0  0  0  0  0  0  0
   21.8810    6.5550   53.1210 N   0  0  0  0  0  0  0  0  0  0  0  0
  5  1  1  0
  8  1  2  0
 12  1  1  0
 11  2  1  0
 13  2  1  0
  4  3  1  0
  5  4  2  0
  6  4  1  0
  7  6  2  0
  8  7  1  0
  9  8  1  0
 10  9  2  0
 11 10  1  0
 12 11  2  0
 14 13  1  0
 15 14  1  0
 16 15  1  0
 17 16  1  0
 18 17  2  0
 19 17  1  0
 24 18  1  0
 20 19  1  0
 22 19  2  0
 21 20  1  0
 23 22  1  0
 24 23  2  0
A    1
C10
A    2
C11
A    3
N02
A    4
C02
A    5
N01
A    6
C03
A    7
C04
A    8
C05
A    9
C06
A   10
C07
A   11
C08
A   12
C09
A   13
N12
A   14
C13
A   15
C14
A   16
C15
A   17
C23
A   18
C22
A   19
C24
A   20
O27
A   21
C28
A   22
C25
A   23
C26
A   24
N21
M  END
>  <Id>  (200) 
5VUO_9OS_B_803

>  <ChainId>  (200) 
B

>  <AsymId>  (200) 
J

>  <SeqNum>  (200) 
803

>  <Name>  (200) 
7-({[3-(4-methoxypyridin-3-yl)propyl]amino}methyl)quinolin-2-amine

>  <SystematicName>  (200) 
7-[[3-(4-methoxypyridin-3-yl)propylamino]methyl]quinolin-2-amine

>  <Synonyms>  (200) 


>  <Type>  (200) 
NON-POLYMER

>  <Formula>  (200) 
C19 H22 N4 O

>  <ObservedFormula>  (200) 
C19 N4 O

>  <MolecularWeight>  (200) 
322.404

>  <ModifiedDate>  (200) 
2017-08-11

>  <Parent>  (200) 


>  <OneLetterCode>  (200) 


>  <SubcomponentList>  (200) 


>  <AmbiguousFlag>  (200) 
N

>  <InsertionCode>  (200) 


>  <InstanceId>  (200) 
5VUO_9OS_B_803

>  <ChemCompId>  (200) 
9OS

>  <PdbId>  (200) 
5VUO

>  <ResidueNumber>  (200) 
803

>  <InChI>  (200) 
InChI=1S/C19H22N4O/c1-24-18-8-10-22-13-16(18)3-2-9-21-12-14-4-5-15-6-7-19(20)23-17(15)11-14/h4-8,10-11,13,21H,2-3,9,12H2,1H3,(H2,20,23)

>  <InChIKey>  (200) 
IQPCOMIHSUSLGC-UHFFFAOYSA-N

>  <SMILES>  (200) 
COc1ccncc1CCCNCc2ccc3ccc(nc3c2)N

>  <MissingHeavyAtoms>  (200) 
0

>  <Model>  (200) 
1

>  <AltIds>  (200) 


>  <pKI>  (200) 
7.3

>  <ChemblID>  (200) 
-

>  <standardized_canonical_smiles>  (200) 
COc1ccncc1CCCNCc1ccc2ccc(N)nc2c1

$$$$
4FVZ_4KJ_B_803
     RDKit          3D

 15 14  0  0  0  0  0  0  0  0999 V2000
   18.4240   -1.6570   58.9680 O   0  0  0  0  0  0  0  0  0  0  0  0
   17.8560   -1.4390   57.8900 C   0  0  0  0  0  0  0  0  0  0  0  0
   17.9410   -2.2440   56.9560 O   0  0  0  0  0  0  0  0  0  0  0  0
   17.0360   -0.1930   57.6950 C   0  0  0  0  0  0  0  0  0  0  0  0
   16.5860   -0.0840   56.3170 N   0  0  0  0  0  0  0  0  0  0  0  0
   15.8110   -0.2100   58.6100 C   0  0  0  0  0  0  0  0  0  0  0  0
   15.0460    1.1300   58.5150 C   0  0  0  0  0  0  0  0  0  0  0  0
   13.6660    0.9470   59.1230 C   0  0  0  0  0  0  0  0  0  0  0  0
   12.8050    0.0330   58.5800 N   0  0  0  0  0  0  0  0  0  0  0  0
   11.6680   -0.4150   59.1590 C   0  0  0  0  0  0  0  0  0  0  0  0
   11.1340   -1.5550   58.6900 N   0  0  0  0  0  0  0  0  0  0  0  0
   11.0650    0.2420   60.1750 N   0  0  0  0  0  0  0  0  0  0  0  0
   10.2930   -0.5120   61.1190 C   0  0  0  0  0  0  0  0  0  0  0  0
   11.1130    1.7230   60.3460 O   0  0  0  0  0  0  0  0  0  0  0  0
   11.6770    2.1100   61.6270 C   0  0  0  0  0  0  0  0  0  0  0  0
  2  1  1  0
  3  2  2  0
  4  2  1  0
  5  4  1  0
  6  4  1  0
  7  6  1  0
  8  7  1  0
  9  8  2  0
 10  9  1  0
 11 10  2  0
 12 10  1  0
 13 12  1  0
 14 12  1  0
 15 14  1  0
A    1
OD2
A    2
C
A    3
OD1
A    4
CA
A    5
N
A    6
CB
A    7
CG
A    8
CD
A    9
NE
A   10
CZ
A   11
NH1
A   12
NH2
A   13
C2
A   14
OH
A   15
C1
M  END
>  <Id>  (201) 
4FVZ_4KJ_B_803

>  <ChainId>  (201) 
B

>  <AsymId>  (201) 
J

>  <SeqNum>  (201) 
803

>  <Name>  (201) 
(5E)-5-[(N-methoxy-N-methylcarbamimidoyl)imino]-L-norvaline

>  <SystematicName>  (201) 
(2S,5E)-2-azanyl-5-(N-methoxy-N-methyl-carbamimidoyl)imino-pentanoic acid

>  <Synonyms>  (201) 


>  <Type>  (201) 
NON-POLYMER

>  <Formula>  (201) 
C8 H16 N4 O3

>  <ObservedFormula>  (201) 
C8 N4 O3

>  <MolecularWeight>  (201) 
216.238

>  <ModifiedDate>  (201) 
2013-05-10

>  <Parent>  (201) 


>  <OneLetterCode>  (201) 


>  <SubcomponentList>  (201) 


>  <AmbiguousFlag>  (201) 
N

>  <InsertionCode>  (201) 


>  <InstanceId>  (201) 
4FVZ_4KJ_B_803

>  <ChemCompId>  (201) 
4KJ

>  <PdbId>  (201) 
4FVZ

>  <ResidueNumber>  (201) 
803

>  <InChI>  (201) 
InChI=1S/C8H16N4O3/c1-12(15-2)8(10)11-5-3-4-6(9)7(13)14/h5-6,10H,3-4,9H2,1-2H3,(H,13,14)/b10-8-,11-5+/t6-/m0/s1

>  <InChIKey>  (201) 
QNJBMUDCQGTHKO-SOKYQSCGSA-N

>  <SMILES>  (201) 
[H]/N=C(/N=C/CC[C@@H](C(=O)O)N)\N(C)OC

>  <MissingHeavyAtoms>  (201) 
0

>  <Model>  (201) 
1

>  <AltIds>  (201) 


>  <pKI>  (201) 
4.55

>  <ChemblID>  (201) 
-

>  <standardized_canonical_smiles>  (201) 
CON(C)C(=N)/N=C/CC[C@H](N)C(=O)O

$$$$
3JT6_JM6_B_800
     RDKit          3D

 16 15  0  0  0  0  0  0  0  0999 V2000
   17.4590   -1.4350   57.8640 C   0  0  0  0  0  0  0  0  0  0  0  0
   16.0910   -0.3360   56.2130 N   0  0  0  0  0  0  0  0  0  0  0  0
   11.4580   -0.7040   59.1660 C   0  0  0  0  0  0  0  0  0  0  0  0
   10.9080   -0.6130   60.5760 C   0  0  0  0  0  0  0  0  0  0  0  0
   10.2960    0.6990   60.9980 C   0  0  0  0  0  0  0  0  0  0  0  0
   10.5690    1.7930   59.9990 C   0  0  0  0  0  0  0  0  0  0  0  0
   11.8800    2.6920   60.7340 S   0  0  0  0  0  0  0  0  0  0  0  0
   12.1890    2.1570   62.3870 C   0  0  0  0  0  0  0  0  0  0  0  0
   16.6480   -0.2200   57.5450 C   0  0  0  0  0  0  0  0  0  0  0  0
   15.5400   -0.1040   58.5860 C   0  0  0  0  0  0  0  0  0  0  0  0
   13.4300    0.7120   59.2530 C   0  0  0  0  0  0  0  0  0  0  0  0
   12.2200    0.2430   58.6040 N   0  0  0  0  0  0  0  0  0  0  0  0
   14.6060    1.0780   58.3650 C   0  0  0  0  0  0  0  0  0  0  0  0
   17.8990   -1.6570   59.0140 O   0  0  0  0  0  0  0  0  0  0  0  0
   17.6650   -2.2160   56.9390 O   0  0  0  0  0  0  0  0  0  0  0  0
   11.1660   -1.7460   58.5560 N   0  0  0  0  0  0  0  0  0  0  0  0
  9  1  1  0
 14  1  1  0
 15  1  2  0
  9  2  1  0
  4  3  1  0
 12  3  1  0
 16  3  2  0
  5  4  1  0
  6  5  1  0
  7  6  1  0
  8  7  1  0
 10  9  1  0
 13 10  1  0
 12 11  1  0
 13 11  1  0
A    1
C
A    2
N
A    3
C1
A    4
C2
A    5
C3
A    6
C4
A    7
S5
A    8
C6
A    9
CA
A   10
CB
A   11
CD
A   12
NE
A   13
CG
A   14
OA1
A   15
OA2
A   16
NH1
M  END
>  <Id>  (202) 
3JT6_JM6_B_800

>  <ChainId>  (202) 
B

>  <AsymId>  (202) 
J

>  <SeqNum>  (202) 
800

>  <Name>  (202) 
N~5~-[4-(methylsulfanyl)butanimidoyl]-L-ornithine

>  <SystematicName>  (202) 
(2S)-2-azanyl-5-(4-methylsulfanylbutanimidoylamino)pentanoic acid

>  <Synonyms>  (202) 


>  <Type>  (202) 
NON-POLYMER

>  <Formula>  (202) 
C10 H21 N3 O2 S

>  <ObservedFormula>  (202) 
C10 S N3 O2

>  <MolecularWeight>  (202) 
247.358

>  <ModifiedDate>  (202) 
2011-06-04

>  <Parent>  (202) 


>  <OneLetterCode>  (202) 


>  <SubcomponentList>  (202) 


>  <AmbiguousFlag>  (202) 
N

>  <InsertionCode>  (202) 


>  <InstanceId>  (202) 
3JT6_JM6_B_800

>  <ChemCompId>  (202) 
JM6

>  <PdbId>  (202) 
3JT6

>  <ResidueNumber>  (202) 
800

>  <InChI>  (202) 
InChI=1S/C10H21N3O2S/c1-16-7-3-5-9(12)13-6-2-4-8(11)10(14)15/h8H,2-7,11H2,1H3,(H2,12,13)(H,14,15)/t8-/m0/s1

>  <InChIKey>  (202) 
BHXCYHGJTSQWOB-QMMMGPOBSA-N

>  <SMILES>  (202) 
[H]/N=C(/CCCSC)\NCCC[C@@H](C(=O)O)N

>  <MissingHeavyAtoms>  (202) 
0

>  <Model>  (202) 
1

>  <AltIds>  (202) 


>  <pKI>  (202) 
4.49

>  <ChemblID>  (202) 
-

>  <standardized_canonical_smiles>  (202) 
CSCCCC(=N)NCCC[C@H](N)C(=O)O

$$$$
3JTA_JM6_B_800
     RDKit          3D

 16 15  0  0  0  0  0  0  0  0999 V2000
   17.7440   -1.4330   57.8000 C   0  0  0  0  0  0  0  0  0  0  0  0
   16.4240   -0.0250   56.2060 N   0  0  0  0  0  0  0  0  0  0  0  0
   11.8200   -0.6820   59.1880 C   0  0  0  0  0  0  0  0  0  0  0  0
   11.6050   -0.3640   60.6570 C   0  0  0  0  0  0  0  0  0  0  0  0
   10.4950    0.6150   60.8660 C   0  0  0  0  0  0  0  0  0  0  0  0
   10.8340    1.7730   59.9770 C   0  0  0  0  0  0  0  0  0  0  0  0
   11.5800    3.0540   60.9350 S   0  0  0  0  0  0  0  0  0  0  0  0
   12.5220    2.3840   62.2550 C   0  0  0  0  0  0  0  0  0  0  0  0
   16.9510   -0.1660   57.5470 C   0  0  0  0  0  0  0  0  0  0  0  0
   15.7780   -0.1240   58.5410 C   0  0  0  0  0  0  0  0  0  0  0  0
   13.5920    1.0580   58.9620 C   0  0  0  0  0  0  0  0  0  0  0  0
   12.7620   -0.0540   58.4940 N   0  0  0  0  0  0  0  0  0  0  0  0
   14.9540    1.1740   58.2890 C   0  0  0  0  0  0  0  0  0  0  0  0
   18.2340   -1.6630   58.9230 O   0  0  0  0  0  0  0  0  0  0  0  0
   17.8520   -2.2720   56.9020 O   0  0  0  0  0  0  0  0  0  0  0  0
   11.1190   -1.5700   58.6680 N   0  0  0  0  0  0  0  0  0  0  0  0
  9  1  1  0
 14  1  1  0
 15  1  2  0
  9  2  1  0
  4  3  1  0
 12  3  1  0
 16  3  2  0
  5  4  1  0
  6  5  1  0
  7  6  1  0
  8  7  1  0
 10  9  1  0
 13 10  1  0
 12 11  1  0
 13 11  1  0
A    1
C
A    2
N
A    3
C1
A    4
C2
A    5
C3
A    6
C4
A    7
S5
A    8
C6
A    9
CA
A   10
CB
A   11
CD
A   12
NE
A   13
CG
A   14
OA1
A   15
OA2
A   16
NH1
M  END
>  <Id>  (203) 
3JTA_JM6_B_800

>  <ChainId>  (203) 
B

>  <AsymId>  (203) 
J

>  <SeqNum>  (203) 
800

>  <Name>  (203) 
N~5~-[4-(methylsulfanyl)butanimidoyl]-L-ornithine

>  <SystematicName>  (203) 
(2S)-2-azanyl-5-(4-methylsulfanylbutanimidoylamino)pentanoic acid

>  <Synonyms>  (203) 


>  <Type>  (203) 
NON-POLYMER

>  <Formula>  (203) 
C10 H21 N3 O2 S

>  <ObservedFormula>  (203) 
C10 S N3 O2

>  <MolecularWeight>  (203) 
247.358

>  <ModifiedDate>  (203) 
2011-06-04

>  <Parent>  (203) 


>  <OneLetterCode>  (203) 


>  <SubcomponentList>  (203) 


>  <AmbiguousFlag>  (203) 
N

>  <InsertionCode>  (203) 


>  <InstanceId>  (203) 
3JTA_JM6_B_800

>  <ChemCompId>  (203) 
JM6

>  <PdbId>  (203) 
3JTA

>  <ResidueNumber>  (203) 
800

>  <InChI>  (203) 
InChI=1S/C10H21N3O2S/c1-16-7-3-5-9(12)13-6-2-4-8(11)10(14)15/h8H,2-7,11H2,1H3,(H2,12,13)(H,14,15)/t8-/m0/s1

>  <InChIKey>  (203) 
BHXCYHGJTSQWOB-QMMMGPOBSA-N

>  <SMILES>  (203) 
[H]/N=C(/CCCSC)\NCCC[C@@H](C(=O)O)N

>  <MissingHeavyAtoms>  (203) 
0

>  <Model>  (203) 
1

>  <AltIds>  (203) 


>  <pKI>  (203) 
4.49

>  <ChemblID>  (203) 
-

>  <standardized_canonical_smiles>  (203) 
CSCCCC(=N)NCCC[C@H](N)C(=O)O

$$$$
3JT3_JM2_B_800
     RDKit          3D

 14 13  0  0  0  0  0  0  0  0999 V2000
   17.5420   -1.4500   57.7360 C   0  0  0  0  0  0  0  0  0  0  0  0
   16.2800   -0.1040   56.1280 N   0  0  0  0  0  0  0  0  0  0  0  0
   11.3950   -0.3290   58.7640 C   0  0  0  0  0  0  0  0  0  0  0  0
   10.7790    0.7020   59.6780 C   0  0  0  0  0  0  0  0  0  0  0  0
   11.3810    0.5640   61.3580 S   0  0  0  0  0  0  0  0  0  0  0  0
   10.8310    2.0930   62.0530 C   0  0  0  0  0  0  0  0  0  0  0  0
   16.7240   -0.1930   57.5110 C   0  0  0  0  0  0  0  0  0  0  0  0
   15.4880   -0.0520   58.4250 C   0  0  0  0  0  0  0  0  0  0  0  0
   13.2630    0.9810   58.5990 C   0  0  0  0  0  0  0  0  0  0  0  0
   12.6120   -0.0730   58.2930 N   0  0  0  0  0  0  0  0  0  0  0  0
   14.6750    1.2010   58.0600 C   0  0  0  0  0  0  0  0  0  0  0  0
   10.7060   -1.4300   58.4500 N   0  0  0  0  0  0  0  0  0  0  0  0
   18.0520   -1.6810   58.8460 O   0  0  0  0  0  0  0  0  0  0  0  0
   17.7590   -2.2500   56.7980 O   0  0  0  0  0  0  0  0  0  0  0  0
  7  1  1  0
 13  1  2  0
 14  1  1  0
  7  2  1  0
  4  3  1  0
 10  3  1  0
 12  3  2  0
  5  4  1  0
  6  5  1  0
  8  7  1  0
 11  8  1  0
 10  9  1  0
 11  9  1  0
A    1
C
A    2
N
A    3
C1
A    4
C2
A    5
S3
A    6
C4
A    7
CA
A    8
CB
A    9
CD
A   10
NE
A   11
CG
A   12
NH
A   13
OA1
A   14
OA2
M  END
>  <Id>  (204) 
3JT3_JM2_B_800

>  <ChainId>  (204) 
B

>  <AsymId>  (204) 
I

>  <SeqNum>  (204) 
800

>  <Name>  (204) 
N~5~-[2-(methylsulfanyl)ethanimidoyl]-L-ornithine

>  <SystematicName>  (204) 
(2S)-2-azanyl-5-(2-methylsulfanylethanimidoylamino)pentanoic acid

>  <Synonyms>  (204) 


>  <Type>  (204) 
NON-POLYMER

>  <Formula>  (204) 
C8 H17 N3 O2 S

>  <ObservedFormula>  (204) 
C8 S N3 O2

>  <MolecularWeight>  (204) 
219.304

>  <ModifiedDate>  (204) 
2011-06-04

>  <Parent>  (204) 


>  <OneLetterCode>  (204) 


>  <SubcomponentList>  (204) 


>  <AmbiguousFlag>  (204) 
N

>  <InsertionCode>  (204) 


>  <InstanceId>  (204) 
3JT3_JM2_B_800

>  <ChemCompId>  (204) 
JM2

>  <PdbId>  (204) 
3JT3

>  <ResidueNumber>  (204) 
800

>  <InChI>  (204) 
InChI=1S/C8H17N3O2S/c1-14-5-7(10)11-4-2-3-6(9)8(12)13/h6H,2-5,9H2,1H3,(H2,10,11)(H,12,13)/t6-/m0/s1

>  <InChIKey>  (204) 
VXQPBNRYLWZLLJ-LURJTMIESA-N

>  <SMILES>  (204) 
[H]/N=C(\CSC)/NCCC[C@@H](C(=O)O)N

>  <MissingHeavyAtoms>  (204) 
0

>  <Model>  (204) 
1

>  <AltIds>  (204) 


>  <pKI>  (204) 
6.05

>  <ChemblID>  (204) 
-

>  <standardized_canonical_smiles>  (204) 
CSCC(=N)NCCC[C@H](N)C(=O)O

$$$$
5AGK_RGE_B_801
     RDKit          3D

 15 14  0  0  0  0  0  0  0  0999 V2000
   17.8470   -2.2480   56.9890 O   0  0  0  0  0  0  0  0  0  0  0  0
   17.7360   -1.4110   57.9180 C   0  0  0  0  0  0  0  0  0  0  0  0
   18.2540   -1.5730   59.0470 O   0  0  0  0  0  0  0  0  0  0  0  0
   16.9590   -0.1540   57.6720 C   0  0  0  0  0  0  0  0  0  0  0  0
   16.5190   -0.0880   56.2550 N   0  0  0  0  0  0  0  0  0  0  0  0
   15.7550   -0.1230   58.6080 C   0  0  0  0  0  0  0  0  0  0  0  0
   15.1540    1.2820   58.6150 C   0  0  0  0  0  0  0  0  0  0  0  0
   13.6330    1.3280   58.4820 C   0  0  0  0  0  0  0  0  0  0  0  0
   13.0030    0.0240   58.4360 N   0  0  0  0  0  0  0  0  0  0  0  0
   11.7620   -0.1760   58.9020 C   0  0  0  0  0  0  0  0  0  0  0  0
   11.0840   -1.3080   58.6440 N   0  0  0  0  0  0  0  0  0  0  0  0
   11.1160    0.9060   59.7430 C   0  0  0  0  0  0  0  0  0  0  0  0
   11.5690    0.4980   61.3130 S   0  0  0  0  0  0  0  0  0  0  0  0
   10.5810   -0.6880   61.8110 O   0  0  0  0  0  0  0  0  0  0  0  0
   11.4620    1.8170   62.3080 C   0  0  0  0  0  0  0  0  0  0  0  0
  2  1  1  0
  3  2  2  0
  4  2  1  0
  5  4  1  0
  6  4  1  0
  7  6  1  0
  8  7  1  0
  9  8  1  0
 10  9  1  0
 11 10  2  0
 12 10  1  0
 13 12  1  0
 14 13  2  0
 15 13  1  0
A    1
OA2
A    2
C
A    3
OA1
A    4
CA
A    5
N
A    6
CB
A    7
CG
A    8
CD
A    9
NE
A   10
C1
A   11
NH
A   12
C2
A   13
S3
A   14
O4
A   15
C5
M  END
>  <Id>  (205) 
5AGK_RGE_B_801

>  <ChainId>  (205) 
B

>  <AsymId>  (205) 
I

>  <SeqNum>  (205) 
801

>  <Name>  (205) 
(2S)-2-AMINO-5-(2-(METHYLSULFINYL)ACETIMIDAMIDO)PENTANOIC ACID

>  <SystematicName>  (205) 
(2S)-2-azanyl-5-(2-methylsulfinylethanimidoylamino)pentanoic acid

>  <Synonyms>  (205) 


>  <Type>  (205) 
NON-POLYMER

>  <Formula>  (205) 
C8 H17 N3 O3 S

>  <ObservedFormula>  (205) 
C8 S N3 O3

>  <MolecularWeight>  (205) 
235.304

>  <ModifiedDate>  (205) 
2015-04-24

>  <Parent>  (205) 


>  <OneLetterCode>  (205) 


>  <SubcomponentList>  (205) 


>  <AmbiguousFlag>  (205) 
N

>  <InsertionCode>  (205) 


>  <InstanceId>  (205) 
5AGK_RGE_B_801

>  <ChemCompId>  (205) 
RGE

>  <PdbId>  (205) 
5AGK

>  <ResidueNumber>  (205) 
801

>  <InChI>  (205) 
InChI=1S/C8H17N3O3S/c1-15(14)5-7(10)11-4-2-3-6(9)8(12)13/h6H,2-5,9H2,1H3,(H2,10,11)(H,12,13)/t6-,15+/m0/s1

>  <InChIKey>  (205) 
PZGMBMRDRVWIGU-WDDATRMLSA-N

>  <SMILES>  (205) 
[H]/N=C(\CS(=O)C)/NCCC[C@@H](C(=O)O)N

>  <MissingHeavyAtoms>  (205) 
0

>  <Model>  (205) 
1

>  <AltIds>  (205) 


>  <pKI>  (205) 
4.28

>  <ChemblID>  (205) 
-

>  <standardized_canonical_smiles>  (205) 
C[S@@](=O)CC(=N)NCCC[C@H](N)C(=O)O

$$$$
5AGL_CCW_B_800
     RDKit          3D

 16 15  0  0  0  0  0  0  0  0999 V2000
   18.1950   -1.6570   58.9650 O   0  0  0  0  0  0  0  0  0  0  0  0
   17.6610   -1.3990   57.8700 C   0  0  0  0  0  0  0  0  0  0  0  0
   17.8100   -2.1900   56.9360 O   0  0  0  0  0  0  0  0  0  0  0  0
   16.8500   -0.1380   57.6300 C   0  0  0  0  0  0  0  0  0  0  0  0
   16.3830   -0.1310   56.2500 N   0  0  0  0  0  0  0  0  0  0  0  0
   15.6300   -0.0020   58.5590 C   0  0  0  0  0  0  0  0  0  0  0  0
   15.0530    1.4180   58.4000 C   0  0  0  0  0  0  0  0  0  0  0  0
   13.5260    1.5550   58.3710 C   0  0  0  0  0  0  0  0  0  0  0  0
   12.7760    0.3130   58.1540 N   0  0  0  0  0  0  0  0  0  0  0  0
   11.5910    0.0710   58.7240 C   0  0  0  0  0  0  0  0  0  0  0  0
   10.9670   -1.0360   58.6040 N   0  0  0  0  0  0  0  0  0  0  0  0
   11.0160    1.1940   59.5540 C   0  0  0  0  0  0  0  0  0  0  0  0
   11.3910    0.9470   61.1830 S   0  0  0  0  0  0  0  0  0  0  0  0
   10.6910   -0.2600   61.5710 O   0  0  0  0  0  0  0  0  0  0  0  0
   10.8780    2.1460   61.8560 O   0  0  0  0  0  0  0  0  0  0  0  0
   13.0130    0.9300   61.4780 C   0  0  0  0  0  0  0  0  0  0  0  0
  2  1  1  0
  3  2  2  0
  4  2  1  0
  5  4  1  0
  6  4  1  0
  7  6  1  0
  8  7  1  0
  9  8  1  0
 10  9  2  0
 11 10  1  0
 12 10  1  0
 13 12  1  0
 14 13  2  0
 15 13  2  0
 16 13  1  0
A    1
OA1
A    2
C
A    3
OA2
A    4
CA
A    5
N
A    6
CB
A    7
CG
A    8
CD
A    9
NE
A   10
C1
A   11
NH1
A   12
C2
A   13
S3
A   14
O6
A   15
O5
A   16
C4
M  END
>  <Id>  (206) 
5AGL_CCW_B_800

>  <ChainId>  (206) 
B

>  <AsymId>  (206) 
I

>  <SeqNum>  (206) 
800

>  <Name>  (206) 
(S)-2-Amino-5-(2-(methylsulfonyl)acetimidamido)pentanoic acid

>  <SystematicName>  (206) 
(2S)-2-azanyl-5-[(E)-(1-azanyl-2-methylsulfonyl-ethylidene)amino]pentanoic acid

>  <Synonyms>  (206) 


>  <Type>  (206) 
non-polymer

>  <Formula>  (206) 
C8 H17 N3 O4 S

>  <ObservedFormula>  (206) 
C8 S N3 O4

>  <MolecularWeight>  (206) 
251.303

>  <ModifiedDate>  (206) 
2015-04-24

>  <Parent>  (206) 


>  <OneLetterCode>  (206) 


>  <SubcomponentList>  (206) 


>  <AmbiguousFlag>  (206) 
N

>  <InsertionCode>  (206) 


>  <InstanceId>  (206) 
5AGL_CCW_B_800

>  <ChemCompId>  (206) 
CCW

>  <PdbId>  (206) 
5AGL

>  <ResidueNumber>  (206) 
800

>  <InChI>  (206) 
InChI=1S/C8H17N3O4S/c1-16(14,15)5-7(10)11-4-2-3-6(9)8(12)13/h6H,2-5,9H2,1H3,(H2,10,11)(H,12,13)/t6-/m0/s1

>  <InChIKey>  (206) 
ABSOUQYCCCLTCI-LURJTMIESA-N

>  <SMILES>  (206) 
CS(=O)(=O)C/C(=N\CCC[C@@H](C(=O)O)N)/N

>  <MissingHeavyAtoms>  (206) 
0

>  <Model>  (206) 
1

>  <AltIds>  (206) 


>  <pKI>  (206) 
4.23

>  <ChemblID>  (206) 
-

>  <standardized_canonical_smiles>  (206) 
CS(=O)(=O)C/C(N)=N\CCC[C@H](N)C(=O)O

$$$$
5VUI_M62_B_803
     RDKit          3D

 20 22  0  0  0  0  0  0  0  0999 V2000
   12.4670    0.1640   58.0650 N   0  0  0  0  0  0  0  0  0  0  0  0
   11.3570   -1.8350   58.6010 N   0  0  0  0  0  0  0  0  0  0  0  0
   11.5280   -0.5000   58.7840 C   0  0  0  0  0  0  0  0  0  0  0  0
   10.7420    0.1840   59.7160 C   0  0  0  0  0  0  0  0  0  0  0  0
   10.9030    1.5570   59.8970 C   0  0  0  0  0  0  0  0  0  0  0  0
   11.8730    2.2110   59.1410 C   0  0  0  0  0  0  0  0  0  0  0  0
   12.0700    3.5790   59.2990 C   0  0  0  0  0  0  0  0  0  0  0  0
   13.0390    4.2300   58.5440 C   0  0  0  0  0  0  0  0  0  0  0  0
   13.8220    3.5240   57.6300 C   0  0  0  0  0  0  0  0  0  0  0  0
   13.6200    2.1520   57.4790 C   0  0  0  0  0  0  0  0  0  0  0  0
   12.6460    1.4970   58.2240 C   0  0  0  0  0  0  0  0  0  0  0  0
   14.8860    4.2480   56.8140 C   0  0  0  0  0  0  0  0  0  0  0  0
   16.1740    3.6150   57.0450 N   0  0  0  0  0  0  0  0  0  0  0  0
   17.0140    4.1190   57.9840 C   0  0  0  0  0  0  0  0  0  0  0  0
   16.7930    5.3950   58.5210 C   0  0  0  0  0  0  0  0  0  0  0  0
   17.6440    5.9320   59.4880 C   0  0  0  0  0  0  0  0  0  0  0  0
   18.7290    5.1800   59.9280 C   0  0  0  0  0  0  0  0  0  0  0  0
   18.9610    3.9080   59.3980 C   0  0  0  0  0  0  0  0  0  0  0  0
   20.0200    3.1980   59.8330 F   0  0  0  0  0  0  0  0  0  0  0  0
   18.1090    3.3730   58.4230 C   0  0  0  0  0  0  0  0  0  0  0  0
  3  1  2  0
 11  1  1  0
  3  2  1  0
  4  3  1  0
  5  4  2  0
  6  5  1  0
  7  6  1  0
 11  6  2  0
  8  7  2  0
  9  8  1  0
 10  9  2  0
 12  9  1  0
 11 10  1  0
 13 12  1  0
 14 13  1  0
 15 14  2  0
 20 14  1  0
 16 15  1  0
 17 16  2  0
 18 17  1  0
 19 18  1  0
 20 18  2  0
A    1
N01
A    2
N02
A    3
C02
A    4
C03
A    5
C04
A    6
C05
A    7
C06
A    8
C07
A    9
C08
A   10
C09
A   11
C10
A   12
C11
A   13
N12
A   14
C21
A   15
C22
A   16
C23
A   17
C24
A   18
C25
A   19
F27
A   20
C26
M  END
>  <Id>  (207) 
5VUI_M62_B_803

>  <ChainId>  (207) 
B

>  <AsymId>  (207) 
J

>  <SeqNum>  (207) 
803

>  <Name>  (207) 
7-{[(3-fluorophenyl)amino]methyl}quinolin-2-amine

>  <SystematicName>  (207) 
7-[[(3-fluorophenyl)amino]methyl]quinolin-2-amine

>  <Synonyms>  (207) 


>  <Type>  (207) 
NON-POLYMER

>  <Formula>  (207) 
C16 H14 F N3

>  <ObservedFormula>  (207) 
C16 F N3

>  <MolecularWeight>  (207) 
267.301

>  <ModifiedDate>  (207) 
2017-08-11

>  <Parent>  (207) 


>  <OneLetterCode>  (207) 


>  <SubcomponentList>  (207) 


>  <AmbiguousFlag>  (207) 
N

>  <InsertionCode>  (207) 


>  <InstanceId>  (207) 
5VUI_M62_B_803

>  <ChemCompId>  (207) 
M62

>  <PdbId>  (207) 
5VUI

>  <ResidueNumber>  (207) 
803

>  <InChI>  (207) 
InChI=1S/C16H14FN3/c17-13-2-1-3-14(9-13)19-10-11-4-5-12-6-7-16(18)20-15(12)8-11/h1-9,19H,10H2,(H2,18,20)

>  <InChIKey>  (207) 
UVVDQBVYPPCDJF-UHFFFAOYSA-N

>  <SMILES>  (207) 
c1cc(cc(c1)F)NCc2ccc3ccc(nc3c2)N

>  <MissingHeavyAtoms>  (207) 
0

>  <Model>  (207) 
1

>  <AltIds>  (207) 


>  <pKI>  (207) 
6.24

>  <ChemblID>  (207) 
-

>  <standardized_canonical_smiles>  (207) 
Nc1ccc2ccc(CNc3cccc(F)c3)cc2n1

$$$$
5VUM_XH8_B_803
     RDKit          3D

 22 24  0  0  0  0  0  0  0  0999 V2000
   11.0880   -1.5510   58.9190 N   0  0  0  0  0  0  0  0  0  0  0  0
   11.4070   -0.2230   59.0020 C   0  0  0  0  0  0  0  0  0  0  0  0
   10.5710    0.7030   59.6380 C   0  0  0  0  0  0  0  0  0  0  0  0
   10.9070    2.0510   59.6920 C   0  0  0  0  0  0  0  0  0  0  0  0
   12.1100    2.4550   59.1300 C   0  0  0  0  0  0  0  0  0  0  0  0
   12.5080    3.7930   59.1640 C   0  0  0  0  0  0  0  0  0  0  0  0
   13.7260    4.1680   58.5850 C   0  0  0  0  0  0  0  0  0  0  0  0
   14.5430    3.2110   57.9780 C   0  0  0  0  0  0  0  0  0  0  0  0
   15.8880    3.5190   57.3540 C   0  0  0  0  0  0  0  0  0  0  0  0
   16.0180    4.8640   56.7890 N   0  0  0  0  0  0  0  0  0  0  0  0
   17.1710    4.8010   55.8730 C   0  0  0  0  0  0  0  0  0  0  0  0
   18.0610    6.0220   55.9930 C   0  0  0  0  0  0  0  0  0  0  0  0
   19.4310    5.7190   55.4070 C   0  0  0  0  0  0  0  0  0  0  0  0
   19.9670    6.9760   54.7700 C   0  0  0  0  0  0  0  0  0  0  0  0
   21.2630    6.9940   54.2670 C   0  0  0  0  0  0  0  0  0  0  0  0
   21.7220    8.1690   53.6860 C   0  0  0  0  0  0  0  0  0  0  0  0
   20.8770    9.2800   53.6280 C   0  0  0  0  0  0  0  0  0  0  0  0
   19.6250    9.2360   54.1190 N   0  0  0  0  0  0  0  0  0  0  0  0
   19.1600    8.1120   54.6840 C   0  0  0  0  0  0  0  0  0  0  0  0
   14.1340    1.8840   57.9580 C   0  0  0  0  0  0  0  0  0  0  0  0
   12.9230    1.5070   58.5190 C   0  0  0  0  0  0  0  0  0  0  0  0
   12.5630    0.2070   58.4630 N   0  0  0  0  0  0  0  0  0  0  0  0
  2  1  1  0
  3  2  2  0
 22  2  1  0
  4  3  1  0
  5  4  2  0
  6  5  1  0
 21  5  1  0
  7  6  2  0
  8  7  1  0
  9  8  1  0
 20  8  2  0
 10  9  1  0
 11 10  1  0
 12 11  1  0
 13 12  1  0
 14 13  1  0
 15 14  2  0
 19 14  1  0
 16 15  1  0
 17 16  2  0
 18 17  1  0
 19 18  2  0
 21 20  1  0
 22 21  2  0
A    1
N01
A    2
C02
A    3
C03
A    4
C04
A    5
C05
A    6
C06
A    7
C07
A    8
C08
A    9
C09
A   10
N10
A   11
C11
A   12
C12
A   13
C13
A   14
C14
A   15
C15
A   16
C16
A   17
C17
A   18
N18
A   19
C19
A   20
C20
A   21
C21
A   22
N22
M  END
>  <Id>  (208) 
5VUM_XH8_B_803

>  <ChainId>  (208) 
B

>  <AsymId>  (208) 
J

>  <SeqNum>  (208) 
803

>  <Name>  (208) 
7-(((3-(PYRIDIN-3-YL)PROPYL)AMINO)METHYL)QUINOLIN-2-

>  <SystematicName>  (208) 
7-[(3-pyridin-3-ylpropylamino)methyl]quinolin-2-amine

>  <Synonyms>  (208) 


>  <Type>  (208) 
non-polymer

>  <Formula>  (208) 
C18 H20 N4

>  <ObservedFormula>  (208) 
C18 N4

>  <MolecularWeight>  (208) 
292.378

>  <ModifiedDate>  (208) 
2016-09-16

>  <Parent>  (208) 


>  <OneLetterCode>  (208) 


>  <SubcomponentList>  (208) 


>  <AmbiguousFlag>  (208) 
N

>  <InsertionCode>  (208) 


>  <InstanceId>  (208) 
5VUM_XH8_B_803

>  <ChemCompId>  (208) 
XH8

>  <PdbId>  (208) 
5VUM

>  <ResidueNumber>  (208) 
803

>  <InChI>  (208) 
InChI=1S/C18H20N4/c19-18-8-7-16-6-5-15(11-17(16)22-18)13-21-10-2-4-14-3-1-9-20-12-14/h1,3,5-9,11-12,21H,2,4,10,13H2,(H2,19,22)

>  <InChIKey>  (208) 
SYLCHGGIDVOGEK-UHFFFAOYSA-N

>  <SMILES>  (208) 
c1cc(cnc1)CCCNCc2ccc3ccc(nc3c2)N

>  <MissingHeavyAtoms>  (208) 
0

>  <Model>  (208) 
1

>  <AltIds>  (208) 


>  <pKI>  (208) 
7.42

>  <ChemblID>  (208) 
-

>  <standardized_canonical_smiles>  (208) 
Nc1ccc2ccc(CNCCCc3cccnc3)cc2n1

$$$$
5VUP_9P4_B_803
     RDKit          3D

 23 25  0  0  0  0  0  0  0  0999 V2000
   19.2840   10.2750   53.3180 F   0  0  0  0  0  0  0  0  0  0  0  0
   19.9610    9.1470   53.6100 C   0  0  0  0  0  0  0  0  0  0  0  0
   21.3110    9.0100   53.2720 C   0  0  0  0  0  0  0  0  0  0  0  0
   21.9940    7.8880   53.5550 N   0  0  0  0  0  0  0  0  0  0  0  0
   21.3800    6.8700   54.1720 C   0  0  0  0  0  0  0  0  0  0  0  0
   19.3080    8.1030   54.2500 C   0  0  0  0  0  0  0  0  0  0  0  0
   20.0340    6.9520   54.5300 C   0  0  0  0  0  0  0  0  0  0  0  0
   19.3820    5.7830   55.2230 C   0  0  0  0  0  0  0  0  0  0  0  0
   17.8830    5.9860   55.3870 C   0  0  0  0  0  0  0  0  0  0  0  0
   17.4260    4.8570   56.2960 C   0  0  0  0  0  0  0  0  0  0  0  0
   15.9920    4.8730   56.6120 N   0  0  0  0  0  0  0  0  0  0  0  0
   15.8140    3.5720   57.2530 C   0  0  0  0  0  0  0  0  0  0  0  0
   14.4710    3.2360   57.8510 C   0  0  0  0  0  0  0  0  0  0  0  0
   13.6200    4.1720   58.4480 C   0  0  0  0  0  0  0  0  0  0  0  0
   12.4130    3.7550   59.0220 C   0  0  0  0  0  0  0  0  0  0  0  0
   14.1260    1.8880   57.8310 C   0  0  0  0  0  0  0  0  0  0  0  0
   12.9210    1.4750   58.3820 C   0  0  0  0  0  0  0  0  0  0  0  0
   12.6100    0.1590   58.3320 N   0  0  0  0  0  0  0  0  0  0  0  0
   12.0650    2.4030   58.9870 C   0  0  0  0  0  0  0  0  0  0  0  0
   10.8700    1.9560   59.5500 C   0  0  0  0  0  0  0  0  0  0  0  0
   10.5920    0.5870   59.4890 C   0  0  0  0  0  0  0  0  0  0  0  0
   11.4650   -0.3090   58.8630 C   0  0  0  0  0  0  0  0  0  0  0  0
   11.1930   -1.6440   58.7760 N   0  0  0  0  0  0  0  0  0  0  0  0
  2  1  1  0
  3  2  2  0
  6  2  1  0
  4  3  1  0
  5  4  2  0
  7  5  1  0
  7  6  2  0
  8  7  1  0
  9  8  1  0
 10  9  1  0
 11 10  1  0
 12 11  1  0
 13 12  1  0
 14 13  2  0
 16 13  1  0
 15 14  1  0
 19 15  2  0
 17 16  2  0
 18 17  1  0
 19 17  1  0
 22 18  2  0
 20 19  1  0
 21 20  2  0
 22 21  1  0
 23 22  1  0
A    1
F23
A    2
C23
A    3
C22
A    4
N21
A    5
C26
A    6
C24
A    7
C25
A    8
C15
A    9
C14
A   10
C13
A   11
N12
A   12
C11
A   13
C08
A   14
C07
A   15
C06
A   16
C09
A   17
C10
A   18
N01
A   19
C05
A   20
C04
A   21
C03
A   22
C02
A   23
N02
M  END
>  <Id>  (209) 
5VUP_9P4_B_803

>  <ChainId>  (209) 
B

>  <AsymId>  (209) 
J

>  <SeqNum>  (209) 
803

>  <Name>  (209) 
7-({[3-(5-fluoropyridin-3-yl)propyl]amino}methyl)quinolin-2-amine

>  <SystematicName>  (209) 
7-[[3-(5-fluoranylpyridin-3-yl)propylamino]methyl]quinolin-2-amine

>  <Synonyms>  (209) 


>  <Type>  (209) 
NON-POLYMER

>  <Formula>  (209) 
C18 H19 F N4

>  <ObservedFormula>  (209) 
C18 F N4

>  <MolecularWeight>  (209) 
310.369

>  <ModifiedDate>  (209) 
2017-08-11

>  <Parent>  (209) 


>  <OneLetterCode>  (209) 


>  <SubcomponentList>  (209) 


>  <AmbiguousFlag>  (209) 
N

>  <InsertionCode>  (209) 


>  <InstanceId>  (209) 
5VUP_9P4_B_803

>  <ChemCompId>  (209) 
9P4

>  <PdbId>  (209) 
5VUP

>  <ResidueNumber>  (209) 
803

>  <InChI>  (209) 
InChI=1S/C18H19FN4/c19-16-8-13(11-22-12-16)2-1-7-21-10-14-3-4-15-5-6-18(20)23-17(15)9-14/h3-6,8-9,11-12,21H,1-2,7,10H2,(H2,20,23)

>  <InChIKey>  (209) 
GIUCGMWNASMMOJ-UHFFFAOYSA-N

>  <SMILES>  (209) 
c1cc(cc2c1ccc(n2)N)CNCCCc3cc(cnc3)F

>  <MissingHeavyAtoms>  (209) 
0

>  <Model>  (209) 
1

>  <AltIds>  (209) 


>  <pKI>  (209) 
6.67

>  <ChemblID>  (209) 
-

>  <standardized_canonical_smiles>  (209) 
Nc1ccc2ccc(CNCCCc3cncc(F)c3)cc2n1

$$$$
5VUS_9PM_B_803
     RDKit          3D

 24 26  0  0  0  0  0  0  0  0999 V2000
   23.6970    7.2270   53.7040 N   0  0  0  0  0  0  0  0  0  0  0  0
   22.5900    7.1360   54.0280 C   0  0  0  0  0  0  0  0  0  0  0  0
   21.3370    6.9730   54.2840 C   0  0  0  0  0  0  0  0  0  0  0  0
   20.4410    8.0410   54.3830 C   0  0  0  0  0  0  0  0  0  0  0  0
   20.9610    9.7430   54.1810 Cl  0  0  0  0  0  0  0  0  0  0  0  0
   19.1050    7.7940   54.6510 C   0  0  0  0  0  0  0  0  0  0  0  0
   20.8830    5.6610   54.4460 C   0  0  0  0  0  0  0  0  0  0  0  0
   19.5340    5.4280   54.7140 C   0  0  0  0  0  0  0  0  0  0  0  0
   18.6540    6.4930   54.8090 C   0  0  0  0  0  0  0  0  0  0  0  0
   17.2080    6.2170   55.0990 C   0  0  0  0  0  0  0  0  0  0  0  0
   17.0960    5.0130   56.0170 C   0  0  0  0  0  0  0  0  0  0  0  0
   15.7020    4.8420   56.4540 N   0  0  0  0  0  0  0  0  0  0  0  0
   15.7150    3.7020   57.3750 C   0  0  0  0  0  0  0  0  0  0  0  0
   14.3770    3.3330   57.9740 C   0  0  0  0  0  0  0  0  0  0  0  0
   14.0640    1.9830   57.9950 C   0  0  0  0  0  0  0  0  0  0  0  0
   13.4820    4.2600   58.5180 C   0  0  0  0  0  0  0  0  0  0  0  0
   12.2790    3.8130   59.0740 C   0  0  0  0  0  0  0  0  0  0  0  0
   11.9780    2.4470   59.0870 C   0  0  0  0  0  0  0  0  0  0  0  0
   10.7920    1.9730   59.6400 C   0  0  0  0  0  0  0  0  0  0  0  0
   10.5530    0.6010   59.6130 C   0  0  0  0  0  0  0  0  0  0  0  0
   11.4680   -0.2830   59.0360 C   0  0  0  0  0  0  0  0  0  0  0  0
   11.2340   -1.6190   59.0070 N   0  0  0  0  0  0  0  0  0  0  0  0
   12.6110    0.1990   58.5160 N   0  0  0  0  0  0  0  0  0  0  0  0
   12.8700    1.5320   58.5340 C   0  0  0  0  0  0  0  0  0  0  0  0
  2  1  3  0
  3  2  1  0
  4  3  2  0
  7  3  1  0
  5  4  1  0
  6  4  1  0
  9  6  2  0
  8  7  2  0
  9  8  1  0
 10  9  1  0
 11 10  1  0
 12 11  1  0
 13 12  1  0
 14 13  1  0
 15 14  2  0
 16 14  1  0
 24 15  1  0
 17 16  2  0
 18 17  1  0
 19 18  1  0
 24 18  2  0
 20 19  2  0
 21 20  1  0
 22 21  1  0
 23 21  2  0
 24 23  1  0
A    1
N28
A    2
C27
A    3
C24
A    4
C23
A    5
CL2
A    6
C22
A    7
C25
A    8
C26
A    9
C21
A   10
C14
A   11
C13
A   12
N12
A   13
C11
A   14
C08
A   15
C09
A   16
C07
A   17
C06
A   18
C05
A   19
C04
A   20
C03
A   21
C02
A   22
N02
A   23
N01
A   24
C10
M  END
>  <Id>  (210) 
5VUS_9PM_B_803

>  <ChainId>  (210) 
B

>  <AsymId>  (210) 
J

>  <SeqNum>  (210) 
803

>  <Name>  (210) 
4-(2-{[(2-aminoquinolin-7-yl)methyl]amino}ethyl)-2-chlorobenzonitrile

>  <SystematicName>  (210) 
4-[2-[(2-azanylquinolin-7-yl)methylamino]ethyl]-2-chloranyl-benzenecarbonitrile

>  <Synonyms>  (210) 


>  <Type>  (210) 
NON-POLYMER

>  <Formula>  (210) 
C19 H17 Cl N4

>  <ObservedFormula>  (210) 
C19 Cl N4

>  <MolecularWeight>  (210) 
336.818

>  <ModifiedDate>  (210) 
2017-08-11

>  <Parent>  (210) 


>  <OneLetterCode>  (210) 


>  <SubcomponentList>  (210) 


>  <AmbiguousFlag>  (210) 
N

>  <InsertionCode>  (210) 


>  <InstanceId>  (210) 
5VUS_9PM_B_803

>  <ChemCompId>  (210) 
9PM

>  <PdbId>  (210) 
5VUS

>  <ResidueNumber>  (210) 
803

>  <InChI>  (210) 
InChI=1S/C19H17ClN4/c20-17-9-13(1-4-16(17)11-21)7-8-23-12-14-2-3-15-5-6-19(22)24-18(15)10-14/h1-6,9-10,23H,7-8,12H2,(H2,22,24)

>  <InChIKey>  (210) 
KZMLSFIKJMMRRD-UHFFFAOYSA-N

>  <SMILES>  (210) 
c1cc(cc2c1ccc(n2)N)CNCCc3ccc(c(c3)Cl)C#N

>  <MissingHeavyAtoms>  (210) 
0

>  <Model>  (210) 
1

>  <AltIds>  (210) 


>  <pKI>  (210) 
7.51

>  <ChemblID>  (210) 
-

>  <standardized_canonical_smiles>  (210) 
N#Cc1ccc(CCNCc2ccc3ccc(N)nc3c2)cc1Cl

$$$$
5VUQ_P94_B_803
     RDKit          3D

 23 25  0  0  0  0  0  0  0  0999 V2000
   23.8700    7.3540   53.7710 N   0  0  0  0  0  0  0  0  0  0  0  0
   22.7470    7.1990   54.0230 C   0  0  0  0  0  0  0  0  0  0  0  0
   18.8340    6.5420   54.8940 C   0  0  0  0  0  0  0  0  0  0  0  0
   19.3250    7.8470   54.9470 C   0  0  0  0  0  0  0  0  0  0  0  0
   20.6660    8.0790   54.6490 C   0  0  0  0  0  0  0  0  0  0  0  0
   21.5020    7.0120   54.3040 C   0  0  0  0  0  0  0  0  0  0  0  0
   20.9990    5.7190   54.2540 C   0  0  0  0  0  0  0  0  0  0  0  0
   19.6650    5.4850   54.5520 C   0  0  0  0  0  0  0  0  0  0  0  0
   17.3930    6.2390   55.2170 C   0  0  0  0  0  0  0  0  0  0  0  0
   17.3010    4.9980   56.0990 C   0  0  0  0  0  0  0  0  0  0  0  0
   15.9180    4.7810   56.5640 N   0  0  0  0  0  0  0  0  0  0  0  0
   15.9380    3.6750   57.5360 C   0  0  0  0  0  0  0  0  0  0  0  0
   13.0100    1.5130   58.6070 C   0  0  0  0  0  0  0  0  0  0  0  0
   14.2340    1.9280   58.0770 C   0  0  0  0  0  0  0  0  0  0  0  0
   14.5850    3.2780   58.0980 C   0  0  0  0  0  0  0  0  0  0  0  0
   13.6960    4.2030   58.6610 C   0  0  0  0  0  0  0  0  0  0  0  0
   12.4730    3.7850   59.2120 C   0  0  0  0  0  0  0  0  0  0  0  0
   12.1320    2.4320   59.1800 C   0  0  0  0  0  0  0  0  0  0  0  0
   10.9240    1.9790   59.7120 C   0  0  0  0  0  0  0  0  0  0  0  0
   10.6390    0.6080   59.6590 C   0  0  0  0  0  0  0  0  0  0  0  0
   11.5420   -0.2840   59.0640 C   0  0  0  0  0  0  0  0  0  0  0  0
   11.2950   -1.6260   58.9820 N   0  0  0  0  0  0  0  0  0  0  0  0
   12.7010    0.1930   58.5680 N   0  0  0  0  0  0  0  0  0  0  0  0
  2  1  3  0
  6  2  1  0
  4  3  2  0
  8  3  1  0
  9  3  1  0
  5  4  1  0
  6  5  2  0
  7  6  1  0
  8  7  2  0
 10  9  1  0
 11 10  1  0
 12 11  1  0
 15 12  1  0
 14 13  2  0
 18 13  1  0
 23 13  1  0
 15 14  1  0
 16 15  2  0
 17 16  1  0
 18 17  2  0
 19 18  1  0
 20 19  2  0
 21 20  1  0
 22 21  1  0
 23 21  2  0
A    1
N28
A    2
C27
A    3
C21
A    4
C22
A    5
C23
A    6
C24
A    7
C25
A    8
C26
A    9
C14
A   10
C13
A   11
N12
A   12
C11
A   13
C10
A   14
C09
A   15
C08
A   16
C07
A   17
C06
A   18
C05
A   19
C04
A   20
C03
A   21
C02
A   22
N02
A   23
N01
M  END
>  <Id>  (211) 
5VUQ_P94_B_803

>  <ChainId>  (211) 
B

>  <AsymId>  (211) 
J

>  <SeqNum>  (211) 
803

>  <Name>  (211) 
4-(2-{[(2-aminoquinolin-7-yl)methyl]amino}ethyl)benzonitrile

>  <SystematicName>  (211) 
4-[2-[(2-azanylquinolin-7-yl)methylamino]ethyl]benzenecarbonitrile

>  <Synonyms>  (211) 


>  <Type>  (211) 
NON-POLYMER

>  <Formula>  (211) 
C19 H18 N4

>  <ObservedFormula>  (211) 
C19 N4

>  <MolecularWeight>  (211) 
302.373

>  <ModifiedDate>  (211) 
2017-08-11

>  <Parent>  (211) 


>  <OneLetterCode>  (211) 


>  <SubcomponentList>  (211) 


>  <AmbiguousFlag>  (211) 
N

>  <InsertionCode>  (211) 


>  <InstanceId>  (211) 
5VUQ_P94_B_803

>  <ChemCompId>  (211) 
P94

>  <PdbId>  (211) 
5VUQ

>  <ResidueNumber>  (211) 
803

>  <InChI>  (211) 
InChI=1S/C19H18N4/c20-12-15-3-1-14(2-4-15)9-10-22-13-16-5-6-17-7-8-19(21)23-18(17)11-16/h1-8,11,22H,9-10,13H2,(H2,21,23)

>  <InChIKey>  (211) 
CDHZAJGZCBJOTB-UHFFFAOYSA-N

>  <SMILES>  (211) 
c1cc(ccc1CCNCc2ccc3ccc(nc3c2)N)C#N

>  <MissingHeavyAtoms>  (211) 
0

>  <Model>  (211) 
1

>  <AltIds>  (211) 


>  <pKI>  (211) 
7.43

>  <ChemblID>  (211) 
-

>  <standardized_canonical_smiles>  (211) 
N#Cc1ccc(CCNCc2ccc3ccc(N)nc3c2)cc1

$$$$
5AGN_4JK_B_800
     RDKit          3D

 13 12  0  0  0  0  0  0  0  0999 V2000
   11.0440    0.2250   60.2340 C   0  0  0  0  0  0  0  0  0  0  0  0
   11.6010   -0.5400   59.0480 C   0  0  0  0  0  0  0  0  0  0  0  0
   11.0180   -1.6590   58.5970 N   0  0  0  0  0  0  0  0  0  0  0  0
   12.6740   -0.0170   58.4760 N   0  0  0  0  0  0  0  0  0  0  0  0
   13.5400    0.7150   59.0900 C   0  0  0  0  0  0  0  0  0  0  0  0
   14.8420    1.0290   58.3530 C   0  0  0  0  0  0  0  0  0  0  0  0
   15.7750   -0.1760   58.5300 C   0  0  0  0  0  0  0  0  0  0  0  0
   16.8740   -0.2300   57.4690 C   0  0  0  0  0  0  0  0  0  0  0  0
   17.7000   -1.4770   57.7510 C   0  0  0  0  0  0  0  0  0  0  0  0
   17.7860   -2.3530   56.8660 O   0  0  0  0  0  0  0  0  0  0  0  0
   18.2550   -1.6420   58.8690 O   0  0  0  0  0  0  0  0  0  0  0  0
   16.3640   -0.2240   56.0970 N   0  0  0  0  0  0  0  0  0  0  0  0
   10.0550   -0.5780   60.8400 O   0  0  0  0  0  0  0  0  0  0  0  0
  2  1  1  0
 13  1  1  0
  3  2  2  0
  4  2  1  0
  5  4  1  0
  6  5  1  0
  7  6  1  0
  8  7  1  0
  9  8  1  0
 12  8  1  0
 10  9  2  0
 11  9  1  0
A    1
CH
A    2
CZ
A    3
NH
A    4
NE
A    5
CD
A    6
CG
A    7
CB
A    8
CA
A    9
C
A   10
OA2
A   11
OA1
A   12
N
A   13
OH
M  END
>  <Id>  (212) 
5AGN_4JK_B_800

>  <ChainId>  (212) 
B

>  <AsymId>  (212) 
J

>  <SeqNum>  (212) 
800

>  <Name>  (212) 
(S)-2-AMINO-5-(2-HYDROXYACETIMIDAMIDO)PENTANOIC ACID

>  <SystematicName>  (212) 
(2S)-2-azanyl-5-(2-oxidanylethanimidoylamino)pentanoic acid

>  <Synonyms>  (212) 


>  <Type>  (212) 
non-polymer

>  <Formula>  (212) 
C7 H15 N3 O3

>  <ObservedFormula>  (212) 
C7 N3 O3

>  <MolecularWeight>  (212) 
189.212

>  <ModifiedDate>  (212) 
2015-04-24

>  <Parent>  (212) 


>  <OneLetterCode>  (212) 


>  <SubcomponentList>  (212) 


>  <AmbiguousFlag>  (212) 
N

>  <InsertionCode>  (212) 


>  <InstanceId>  (212) 
5AGN_4JK_B_800

>  <ChemCompId>  (212) 
4JK

>  <PdbId>  (212) 
5AGN

>  <ResidueNumber>  (212) 
800

>  <InChI>  (212) 
InChI=1S/C7H15N3O3/c8-5(7(12)13)2-1-3-10-6(9)4-11/h5,11H,1-4,8H2,(H2,9,10)(H,12,13)/t5-/m0/s1

>  <InChIKey>  (212) 
TXBVSXZGQDGYCU-YFKPBYRVSA-N

>  <SMILES>  (212) 
[H]/N=C(\CO)/NCCC[C@@H](C(=O)O)N

>  <MissingHeavyAtoms>  (212) 
0

>  <Model>  (212) 
1

>  <AltIds>  (212) 


>  <pKI>  (212) 
5.82

>  <ChemblID>  (212) 
-

>  <standardized_canonical_smiles>  (212) 
N=C(CO)NCCC[C@H](N)C(=O)O

$$$$
5AGM_WT2_B_800
     RDKit          3D

 13 12  0  0  0  0  0  0  0  0999 V2000
   10.8780    0.6430   59.8660 C   0  0  0  0  0  0  0  0  0  0  0  0
   11.5240   -0.3430   58.9920 C   0  0  0  0  0  0  0  0  0  0  0  0
   10.9320   -1.5190   58.6940 N   0  0  0  0  0  0  0  0  0  0  0  0
   12.7570   -0.0480   58.5760 N   0  0  0  0  0  0  0  0  0  0  0  0
   13.5450    1.1030   59.0100 C   0  0  0  0  0  0  0  0  0  0  0  0
   14.9340    1.1140   58.3440 C   0  0  0  0  0  0  0  0  0  0  0  0
   15.6150   -0.2620   58.3850 C   0  0  0  0  0  0  0  0  0  0  0  0
   16.8540   -0.3490   57.4520 C   0  0  0  0  0  0  0  0  0  0  0  0
   17.7600   -1.5410   57.7260 C   0  0  0  0  0  0  0  0  0  0  0  0
   18.4230   -1.6540   58.7750 O   0  0  0  0  0  0  0  0  0  0  0  0
   17.8630   -2.4390   56.8730 O   0  0  0  0  0  0  0  0  0  0  0  0
   16.4110   -0.4810   56.0830 N   0  0  0  0  0  0  0  0  0  0  0  0
   10.7610    0.2590   61.0120 O   0  0  0  0  0  0  0  0  0  0  0  0
  2  1  1  0
 13  1  2  0
  3  2  2  0
  4  2  1  0
  5  4  1  0
  6  5  1  0
  7  6  1  0
  8  7  1  0
  9  8  1  0
 12  8  1  0
 10  9  2  0
 11  9  1  0
A    1
CH
A    2
CZ
A    3
NH
A    4
NE
A    5
CD
A    6
CG
A    7
CB
A    8
CA
A    9
C
A   10
OA2
A   11
OA1
A   12
N
A   13
OH
M  END
>  <Id>  (213) 
5AGM_WT2_B_800

>  <ChainId>  (213) 
B

>  <AsymId>  (213) 
J

>  <SeqNum>  (213) 
800

>  <Name>  (213) 
(S)-2-AMINO-5-(2-OXOACETIMIDAMIDO)PENTANOIC ACID

>  <SystematicName>  (213) 
(2S)-2-azanyl-5-(2-oxidanylideneethanimidoylamino)pentanoic acid

>  <Synonyms>  (213) 


>  <Type>  (213) 
non-polymer

>  <Formula>  (213) 
C7 H13 N3 O3

>  <ObservedFormula>  (213) 
C7 N3 O3

>  <MolecularWeight>  (213) 
187.196

>  <ModifiedDate>  (213) 
2015-04-24

>  <Parent>  (213) 


>  <OneLetterCode>  (213) 


>  <SubcomponentList>  (213) 


>  <AmbiguousFlag>  (213) 
N

>  <InsertionCode>  (213) 


>  <InstanceId>  (213) 
5AGM_WT2_B_800

>  <ChemCompId>  (213) 
WT2

>  <PdbId>  (213) 
5AGM

>  <ResidueNumber>  (213) 
800

>  <InChI>  (213) 
InChI=1S/C7H13N3O3/c8-5(7(12)13)2-1-3-10-6(9)4-11/h4-5H,1-3,8H2,(H2,9,10)(H,12,13)/t5-/m0/s1

>  <InChIKey>  (213) 
JPSGSOHVMKIFBG-YFKPBYRVSA-N

>  <SMILES>  (213) 
C(C[C@@H](C(=O)O)N)CNC(=N)C=O

>  <MissingHeavyAtoms>  (213) 
0

>  <Model>  (213) 
1

>  <AltIds>  (213) 


>  <pKI>  (213) 
4.64

>  <ChemblID>  (213) 
-

>  <standardized_canonical_smiles>  (213) 
N=C(C=O)NCCC[C@H](N)C(=O)O

$$$$
5VUR_H4B_B_802
     RDKit          3D

 17 18  0  0  0  0  0  0  0  0999 V2000
   14.3710    3.4680   48.7090 N   0  0  0  0  0  0  0  0  0  0  0  0
   14.4960    2.9660   49.9650 C   0  0  0  0  0  0  0  0  0  0  0  0
   13.4510    2.2780   50.4910 N   0  0  0  0  0  0  0  0  0  0  0  0
   15.6380    3.1530   50.6830 N   0  0  0  0  0  0  0  0  0  0  0  0
   16.6750    3.8570   50.1430 C   0  0  0  0  0  0  0  0  0  0  0  0
   17.7530    4.0750   50.7630 O   0  0  0  0  0  0  0  0  0  0  0  0
   16.5510    4.3780   48.8740 C   0  0  0  0  0  0  0  0  0  0  0  0
   15.3880    4.1690   48.1550 C   0  0  0  0  0  0  0  0  0  0  0  0
   17.5640    5.0820   48.3290 N   0  0  0  0  0  0  0  0  0  0  0  0
   15.2700    4.6650   46.9010 N   0  0  0  0  0  0  0  0  0  0  0  0
   17.2220    6.0720   47.3160 C   0  0  0  0  0  0  0  0  0  0  0  0
   16.3600    5.4060   46.2540 C   0  0  0  0  0  0  0  0  0  0  0  0
   18.4930    6.6170   46.6990 C   0  0  0  0  0  0  0  0  0  0  0  0
   19.2010    5.4620   46.2690 O   0  0  0  0  0  0  0  0  0  0  0  0
   18.2510    7.4870   45.4700 C   0  0  0  0  0  0  0  0  0  0  0  0
   19.5290    8.1990   45.0350 C   0  0  0  0  0  0  0  0  0  0  0  0
   17.2210    8.4560   45.7130 O   0  0  0  0  0  0  0  0  0  0  0  0
  2  1  2  0
  8  1  1  0
  3  2  1  0
  4  2  1  0
  5  4  1  0
  6  5  2  0
  7  5  1  0
  8  7  2  0
  9  7  1  0
 10  8  1  0
 11  9  1  0
 12 10  1  0
 12 11  1  0
 13 11  1  0
 14 13  1  0
 15 13  1  0
 16 15  1  0
 17 15  1  0
A    1
N1
A    2
C2
A    3
N2
A    4
N3
A    5
C4
A    6
O4
A    7
C4A
A    8
C8A
A    9
N5
A   10
N8
A   11
C6
A   12
C7
A   13
C9
A   14
O9
A   15
C10
A   16
C11
A   17
O10
M  END
>  <Id>  (214) 
5VUR_H4B_B_802

>  <ChainId>  (214) 
B

>  <AsymId>  (214) 
I

>  <SeqNum>  (214) 
802

>  <Name>  (214) 
5,6,7,8-TETRAHYDROBIOPTERIN

>  <SystematicName>  (214) 
(6R)-2-amino-6-[(1R,2S)-1,2-dihydroxypropyl]-5,6,7,8-tetrahydro-3H-pteridin-4-one

>  <Synonyms>  (214) 


>  <Type>  (214) 
NON-POLYMER

>  <Formula>  (214) 
C9 H15 N5 O3

>  <ObservedFormula>  (214) 
C9 N5 O3

>  <MolecularWeight>  (214) 
241.247

>  <ModifiedDate>  (214) 
2011-06-04

>  <Parent>  (214) 


>  <OneLetterCode>  (214) 


>  <SubcomponentList>  (214) 


>  <AmbiguousFlag>  (214) 
N

>  <InsertionCode>  (214) 


>  <InstanceId>  (214) 
5VUR_H4B_B_802

>  <ChemCompId>  (214) 
H4B

>  <PdbId>  (214) 
5VUR

>  <ResidueNumber>  (214) 
802

>  <InChI>  (214) 
InChI=1S/C9H15N5O3/c1-3(15)6(16)4-2-11-7-5(12-4)8(17)14-9(10)13-7/h3-4,6,12,15-16H,2H2,1H3,(H4,10,11,13,14,17)/t3-,4+,6-/m0/s1

>  <InChIKey>  (214) 
FNKQXYHWGSIFBK-RPDRRWSUSA-N

>  <SMILES>  (214) 
C[C@@H]([C@@H]([C@H]1CNC2=C(N1)C(=O)NC(=N2)N)O)O

>  <MissingHeavyAtoms>  (214) 
0

>  <Model>  (214) 
1

>  <AltIds>  (214) 


>  <pKI>  (214) 
6.38

>  <ChemblID>  (214) 
-

>  <standardized_canonical_smiles>  (214) 
N=C(CS)NCCC[C@H](N)C(=O)O

$$$$
5AGP_VUR_B_800
     RDKit          3D

 13 12  0  0  0  0  0  0  0  0999 V2000
   17.8550   -1.6030   57.5920 C   0  0  0  0  0  0  0  0  0  0  0  0
   16.5070   -0.3620   56.0570 N   0  0  0  0  0  0  0  0  0  0  0  0
   11.8210   -0.4220   59.2070 C   0  0  0  0  0  0  0  0  0  0  0  0
   11.0910    0.4010   60.2800 C   0  0  0  0  0  0  0  0  0  0  0  0
   10.8360    1.9830   59.3850 S   0  0  0  0  0  0  0  0  0  0  0  0
   17.0590   -0.3480   57.4080 C   0  0  0  0  0  0  0  0  0  0  0  0
   15.8850   -0.2560   58.3970 C   0  0  0  0  0  0  0  0  0  0  0  0
   13.6560    0.9520   58.6440 C   0  0  0  0  0  0  0  0  0  0  0  0
   13.1320   -0.1490   59.0130 N   0  0  0  0  0  0  0  0  0  0  0  0
   15.1170    1.0570   58.2170 C   0  0  0  0  0  0  0  0  0  0  0  0
   11.1960   -1.3950   58.5050 N   0  0  0  0  0  0  0  0  0  0  0  0
   18.4470   -1.8510   58.6680 O   0  0  0  0  0  0  0  0  0  0  0  0
   17.9060   -2.3760   56.6150 O   0  0  0  0  0  0  0  0  0  0  0  0
  6  1  1  0
 12  1  1  0
 13  1  2  0
  6  2  1  0
  4  3  1  0
  9  3  1  0
 11  3  2  0
  5  4  1  0
  7  6  1  0
 10  7  1  0
  9  8  1  0
 10  8  1  0
A    1
C
A    2
N
A    3
C1
A    4
C2
A    5
S3
A    6
CA
A    7
CB
A    8
CD
A    9
NE
A   10
CG
A   11
NH
A   12
OA1
A   13
OA2
M  END
>  <Id>  (215) 
5AGP_VUR_B_800

>  <ChainId>  (215) 
B

>  <AsymId>  (215) 
I

>  <SeqNum>  (215) 
800

>  <Name>  (215) 
(S)-2-AMINO-5-(2-MERCAPTOACETIMIDAMIDO)PENTANOIC ACID

>  <SystematicName>  (215) 
(2S)-2-azanyl-5-(2-sulfanylethanimidoylamino)pentanoic acid

>  <Synonyms>  (215) 


>  <Type>  (215) 
NON-POLYMER

>  <Formula>  (215) 
C7 H15 N3 O2 S

>  <ObservedFormula>  (215) 
C7 S N3 O2

>  <MolecularWeight>  (215) 
205.278

>  <ModifiedDate>  (215) 
2015-04-24

>  <Parent>  (215) 


>  <OneLetterCode>  (215) 


>  <SubcomponentList>  (215) 


>  <AmbiguousFlag>  (215) 
N

>  <InsertionCode>  (215) 


>  <InstanceId>  (215) 
5AGP_VUR_B_800

>  <ChemCompId>  (215) 
VUR

>  <PdbId>  (215) 
5AGP

>  <ResidueNumber>  (215) 
800

>  <InChI>  (215) 
InChI=1S/C7H15N3O2S/c8-5(7(11)12)2-1-3-10-6(9)4-13/h5,13H,1-4,8H2,(H2,9,10)(H,11,12)/t5-/m0/s1

>  <InChIKey>  (215) 
ROQCTZSRBCTHGN-YFKPBYRVSA-N

>  <SMILES>  (215) 
[H]/N=C(\CS)/NCCC[C@@H](C(=O)O)N

>  <MissingHeavyAtoms>  (215) 
0

>  <Model>  (215) 
1

>  <AltIds>  (215) 


>  <pKI>  (215) 
6.38

>  <ChemblID>  (215) 
-

>  <standardized_canonical_smiles>  (215) 
N=C(CS)NCCC[C@H](N)C(=O)O

$$$$
5VUR_9P7_B_803
     RDKit          3D

 24 26  0  0  0  0  0  0  0  0999 V2000
   13.0240    1.4040   58.6240 C   0  0  0  0  0  0  0  0  0  0  0  0
   15.9860    3.5010   57.5850 C   0  0  0  0  0  0  0  0  0  0  0  0
   17.2770    4.9300   56.1970 C   0  0  0  0  0  0  0  0  0  0  0  0
   17.2650    6.2070   55.3690 C   0  0  0  0  0  0  0  0  0  0  0  0
   23.6180    7.6470   53.7960 N   0  0  0  0  0  0  0  0  0  0  0  0
   22.5190    7.4250   54.0750 C   0  0  0  0  0  0  0  0  0  0  0  0
   21.2890    7.2160   54.3910 C   0  0  0  0  0  0  0  0  0  0  0  0
   20.8830    5.8720   54.4140 C   0  0  0  0  0  0  0  0  0  0  0  0
   20.3930    8.2230   54.6820 C   0  0  0  0  0  0  0  0  0  0  0  0
   20.8290    9.6660   54.6540 C   0  0  0  0  0  0  0  0  0  0  0  0
   19.0750    7.9190   55.0030 C   0  0  0  0  0  0  0  0  0  0  0  0
   18.6820    6.5860   55.0290 C   0  0  0  0  0  0  0  0  0  0  0  0
   19.5770    5.5720   54.7360 C   0  0  0  0  0  0  0  0  0  0  0  0
   15.9210    4.6650   56.6950 N   0  0  0  0  0  0  0  0  0  0  0  0
   14.6370    3.1380   58.1570 C   0  0  0  0  0  0  0  0  0  0  0  0
   14.2520    1.8030   58.1070 C   0  0  0  0  0  0  0  0  0  0  0  0
   13.7770    4.0840   58.7230 C   0  0  0  0  0  0  0  0  0  0  0  0
   12.5450    3.6890   59.2550 C   0  0  0  0  0  0  0  0  0  0  0  0
   12.1680    2.3490   59.1990 C   0  0  0  0  0  0  0  0  0  0  0  0
   10.9500    1.9380   59.7190 C   0  0  0  0  0  0  0  0  0  0  0  0
   10.6350    0.5810   59.6330 C   0  0  0  0  0  0  0  0  0  0  0  0
   11.5110   -0.3370   59.0360 C   0  0  0  0  0  0  0  0  0  0  0  0
   11.1890   -1.6580   58.9530 N   0  0  0  0  0  0  0  0  0  0  0  0
   12.6950    0.0910   58.5490 N   0  0  0  0  0  0  0  0  0  0  0  0
 16  1  2  0
 19  1  1  0
 24  1  1  0
 14  2  1  0
 15  2  1  0
  4  3  1  0
 14  3  1  0
 12  4  1  0
  6  5  3  0
  7  6  1  0
  8  7  2  0
  9  7  1  0
 13  8  1  0
 10  9  1  0
 11  9  2  0
 12 11  1  0
 13 12  2  0
 16 15  1  0
 17 15  2  0
 18 17  1  0
 19 18  2  0
 20 19  1  0
 21 20  2  0
 22 21  1  0
 23 22  1  0
 24 22  2  0
A    1
C10
A    2
C11
A    3
C13
A    4
C14
A    5
N29
A    6
C28
A    7
C24
A    8
C25
A    9
C23
A   10
C27
A   11
C22
A   12
C21
A   13
C26
A   14
N12
A   15
C08
A   16
C09
A   17
C07
A   18
C06
A   19
C05
A   20
C04
A   21
C03
A   22
C02
A   23
N02
A   24
N01
M  END
>  <Id>  (216) 
5VUR_9P7_B_803

>  <ChainId>  (216) 
B

>  <AsymId>  (216) 
J

>  <SeqNum>  (216) 
803

>  <Name>  (216) 
4-(2-{[(2-aminoquinolin-7-yl)methyl]amino}ethyl)-2-methylbenzonitrile

>  <SystematicName>  (216) 
4-[2-[(2-azanylquinolin-7-yl)methylamino]ethyl]-2-methyl-benzenecarbonitrile

>  <Synonyms>  (216) 


>  <Type>  (216) 
NON-POLYMER

>  <Formula>  (216) 
C20 H20 N4

>  <ObservedFormula>  (216) 
C20 N4

>  <MolecularWeight>  (216) 
316.4

>  <ModifiedDate>  (216) 
2017-08-11

>  <Parent>  (216) 


>  <OneLetterCode>  (216) 


>  <SubcomponentList>  (216) 


>  <AmbiguousFlag>  (216) 
N

>  <InsertionCode>  (216) 


>  <InstanceId>  (216) 
5VUR_9P7_B_803

>  <ChemCompId>  (216) 
9P7

>  <PdbId>  (216) 
5VUR

>  <ResidueNumber>  (216) 
803

>  <InChI>  (216) 
InChI=1S/C20H20N4/c1-14-10-15(2-5-18(14)12-21)8-9-23-13-16-3-4-17-6-7-20(22)24-19(17)11-16/h2-7,10-11,23H,8-9,13H2,1H3,(H2,22,24)

>  <InChIKey>  (216) 
OFELXUWNGBXCPK-UHFFFAOYSA-N

>  <SMILES>  (216) 
Cc1cc(ccc1C#N)CCNCc2ccc3ccc(nc3c2)N

>  <MissingHeavyAtoms>  (216) 
0

>  <Model>  (216) 
1

>  <AltIds>  (216) 


>  <pKI>  (216) 
6.38

>  <ChemblID>  (216) 
-

>  <standardized_canonical_smiles>  (216) 
N=C(CS)NCCC[C@H](N)C(=O)O

$$$$
5AGO_VUR_B_800
     RDKit          3D

 13 12  0  0  0  0  0  0  0  0999 V2000
   17.8780   -1.7090   57.6890 C   0  0  0  0  0  0  0  0  0  0  0  0
   16.4870   -0.3670   56.2040 N   0  0  0  0  0  0  0  0  0  0  0  0
   12.0100   -0.0710   59.4500 C   0  0  0  0  0  0  0  0  0  0  0  0
   10.8750    0.4240   60.3160 C   0  0  0  0  0  0  0  0  0  0  0  0
   11.5400    0.9670   61.9060 S   0  0  0  0  0  0  0  0  0  0  0  0
   17.1330   -0.4060   57.5350 C   0  0  0  0  0  0  0  0  0  0  0  0
   16.0770   -0.2340   58.6310 C   0  0  0  0  0  0  0  0  0  0  0  0
   13.8180    0.8260   58.4060 C   0  0  0  0  0  0  0  0  0  0  0  0
   13.1560    0.6210   59.4630 N   0  0  0  0  0  0  0  0  0  0  0  0
   15.3120    1.0770   58.4540 C   0  0  0  0  0  0  0  0  0  0  0  0
   11.8150   -1.1790   58.7250 N   0  0  0  0  0  0  0  0  0  0  0  0
   18.6410   -1.8850   58.6690 O   0  0  0  0  0  0  0  0  0  0  0  0
   17.7080   -2.5760   56.8080 O   0  0  0  0  0  0  0  0  0  0  0  0
  6  1  1  0
 12  1  1  0
 13  1  2  0
  6  2  1  0
  4  3  1  0
  9  3  1  0
 11  3  2  0
  5  4  1  0
  7  6  1  0
 10  7  1  0
  9  8  1  0
 10  8  1  0
A    1
C
A    2
N
A    3
C1
A    4
C2
A    5
S3
A    6
CA
A    7
CB
A    8
CD
A    9
NE
A   10
CG
A   11
NH
A   12
OA1
A   13
OA2
M  END
>  <Id>  (217) 
5AGO_VUR_B_800

>  <ChainId>  (217) 
B

>  <AsymId>  (217) 
J

>  <SeqNum>  (217) 
800

>  <Name>  (217) 
(S)-2-AMINO-5-(2-MERCAPTOACETIMIDAMIDO)PENTANOIC ACID

>  <SystematicName>  (217) 
(2S)-2-azanyl-5-(2-sulfanylethanimidoylamino)pentanoic acid

>  <Synonyms>  (217) 


>  <Type>  (217) 
NON-POLYMER

>  <Formula>  (217) 
C7 H15 N3 O2 S

>  <ObservedFormula>  (217) 
C7 S N3 O2

>  <MolecularWeight>  (217) 
205.278

>  <ModifiedDate>  (217) 
2015-04-24

>  <Parent>  (217) 


>  <OneLetterCode>  (217) 


>  <SubcomponentList>  (217) 


>  <AmbiguousFlag>  (217) 
N

>  <InsertionCode>  (217) 


>  <InstanceId>  (217) 
5AGO_VUR_B_800

>  <ChemCompId>  (217) 
VUR

>  <PdbId>  (217) 
5AGO

>  <ResidueNumber>  (217) 
800

>  <InChI>  (217) 
InChI=1S/C7H15N3O2S/c8-5(7(11)12)2-1-3-10-6(9)4-13/h5,13H,1-4,8H2,(H2,9,10)(H,11,12)/t5-/m0/s1

>  <InChIKey>  (217) 
ROQCTZSRBCTHGN-YFKPBYRVSA-N

>  <SMILES>  (217) 
[H]/N=C(\CS)/NCCC[C@@H](C(=O)O)N

>  <MissingHeavyAtoms>  (217) 
0

>  <Model>  (217) 
1

>  <AltIds>  (217) 


>  <pKI>  (217) 
6.38

>  <ChemblID>  (217) 
-

>  <standardized_canonical_smiles>  (217) 
N=C(CS)NCCC[C@H](N)C(=O)O

$$$$
5VUR_ACT_B_804
     RDKit          3D

  4  3  0  0  0  0  0  0  0  0999 V2000
    3.0200   -4.9680   57.0830 C   0  0  0  0  0  0  0  0  0  0  0  0
    2.2520   -5.1820   56.1160 O   0  0  0  0  0  0  0  0  0  0  0  0
    2.8180   -5.4750   58.2000 O   0  0  0  0  0  0  0  0  0  0  0  0
    3.9850   -3.8230   57.0170 C   0  0  0  0  0  0  0  0  0  0  0  0
  2  1  2  0
  3  1  1  0
  4  1  1  0
M  CHG  1   3  -1
A    1
C
A    2
O
A    3
OXT
A    4
CH3
M  END
>  <Id>  (218) 
5VUR_ACT_B_804

>  <ChainId>  (218) 
B

>  <AsymId>  (218) 
K

>  <SeqNum>  (218) 
804

>  <Name>  (218) 
ACETATE ION

>  <SystematicName>  (218) 
ethanoate

>  <Synonyms>  (218) 


>  <Type>  (218) 
NON-POLYMER

>  <Formula>  (218) 
C2 H3 O2

>  <ObservedFormula>  (218) 
C2 O2

>  <MolecularWeight>  (218) 
59.044

>  <ModifiedDate>  (218) 
2011-06-04

>  <Parent>  (218) 


>  <OneLetterCode>  (218) 


>  <SubcomponentList>  (218) 


>  <AmbiguousFlag>  (218) 
N

>  <InsertionCode>  (218) 


>  <InstanceId>  (218) 
5VUR_ACT_B_804

>  <ChemCompId>  (218) 
ACT

>  <PdbId>  (218) 
5VUR

>  <ResidueNumber>  (218) 
804

>  <InChI>  (218) 
InChI=1S/C2H4O2/c1-2(3)4/h1H3,(H,3,4)/p-1

>  <InChIKey>  (218) 
QTBSBXVTEAMEQO-UHFFFAOYSA-M

>  <SMILES>  (218) 
CC(=O)[O-]

>  <MissingHeavyAtoms>  (218) 
0

>  <Model>  (218) 
1

>  <AltIds>  (218) 


>  <pKI>  (218) 
6.38

>  <ChemblID>  (218) 
-

>  <standardized_canonical_smiles>  (218) 
N=C(CS)NCCC[C@H](N)C(=O)O

$$$$
2HX3_3HX_B_793
     RDKit          3D

 18 17  0  0  0  0  0  0  0  0999 V2000
   10.6120    0.3360   60.8330 N   0  0  0  0  0  0  0  0  0  0  0  0
   10.3770    1.1660   61.7530 O   0  0  0  0  0  0  0  0  0  0  0  0
   10.1580   -0.8410   60.9240 O   0  0  0  0  0  0  0  0  0  0  0  0
   16.9500   -0.3330   56.3590 N   0  0  0  0  0  0  0  0  0  0  0  0
   16.6240    0.8540   57.2010 C   0  0  0  0  0  0  0  0  0  0  0  0
   17.9480    1.6150   57.5670 C   0  0  0  0  0  0  0  0  0  0  0  0
   15.8450    0.3030   58.4530 C   0  0  0  0  0  0  0  0  0  0  0  0
   14.8580    1.3260   59.0650 C   0  0  0  0  0  0  0  0  0  0  0  0
   13.5850    1.5560   58.2190 C   0  0  0  0  0  0  0  0  0  0  0  0
   12.8590    0.2410   58.0210 N   0  0  0  0  0  0  0  0  0  0  0  0
   11.8110   -0.0880   58.7580 C   0  0  0  0  0  0  0  0  0  0  0  0
   11.3470    0.7580   59.7300 N   0  0  0  0  0  0  0  0  0  0  0  0
   11.2210   -1.3000   58.5100 N   0  0  0  0  0  0  0  0  0  0  0  0
   18.2360    2.8400   56.7660 N   0  0  0  0  0  0  0  0  0  0  0  0
   17.2050    3.6590   56.2430 O   0  0  0  0  0  0  0  0  0  0  0  0
   19.3110    4.7290   54.5830 N   0  0  0  0  0  0  0  0  0  0  0  0
   19.7000    3.1370   56.5540 C   0  0  0  0  0  0  0  0  0  0  0  0
   20.0290    4.4980   55.8880 C   0  0  0  0  0  0  0  0  0  0  0  0
  2  1  1  0
  3  1  2  0
 12  1  1  0
  5  4  1  0
  6  5  1  0
  7  5  1  0
 14  6  1  0
  8  7  1  0
  9  8  1  0
 10  9  1  0
 11 10  1  0
 12 11  1  0
 13 11  2  0
 15 14  1  0
 17 14  1  0
 18 16  1  0
 18 17  1  0
M  CHG  2   1   1   2  -1
A    1
NO
A    2
O2
A    3
O3
A    4
N
A    5
CA
A    6
C
A    7
CB
A    8
CG
A    9
CD
A   10
NE
A   11
CZ
A   12
NH1
A   13
NH2
A   14
NA
A   15
O1'
A   16
NB
A   17
C1'
A   18
C2'
M  END
>  <Id>  (219) 
2HX3_3HX_B_793

>  <ChainId>  (219) 
B

>  <AsymId>  (219) 
K

>  <SeqNum>  (219) 
793

>  <Name>  (219) 
(4S)-N-{4-AMINO-5-[(2-AMINOETHYL)(HYDROXYAMINO]-PENTYL}-N'-NITROGUANIDINE

>  <SystematicName>  (219) 
1-[(4S)-4-amino-5-(2-aminoethyl-hydroxy-amino)pentyl]-3-nitro-guanidine

>  <Synonyms>  (219) 


>  <Type>  (219) 
NON-POLYMER

>  <Formula>  (219) 
C8 H21 N7 O3

>  <ObservedFormula>  (219) 
C8 N7 O3

>  <MolecularWeight>  (219) 
263.297

>  <ModifiedDate>  (219) 
2011-06-04

>  <Parent>  (219) 


>  <OneLetterCode>  (219) 


>  <SubcomponentList>  (219) 


>  <AmbiguousFlag>  (219) 


>  <InsertionCode>  (219) 


>  <InstanceId>  (219) 
2HX3_3HX_B_793

>  <ChemCompId>  (219) 
3HX

>  <PdbId>  (219) 
2HX3

>  <ResidueNumber>  (219) 
793

>  <InChI>  (219) 
InChI=1S/C8H21N7O3/c9-3-5-14(16)6-7(10)2-1-4-12-8(11)13-15(17)18/h7,16H,1-6,9-10H2,(H3,11,12,13)/t7-/m0/s1

>  <InChIKey>  (219) 
HUOGRSGQHCPAGO-ZETCQYMHSA-N

>  <SMILES>  (219) 
[H]/N=C(/NCCC[C@@H](CN(CCN)O)N)\N[N+](=O)[O-]

>  <MissingHeavyAtoms>  (219) 
0

>  <Model>  (219) 
1

>  <AltIds>  (219) 


>  <pKI>  (219) 
6.92

>  <ChemblID>  (219) 
-

>  <standardized_canonical_smiles>  (219) 
N=C(NCCC[C@H](N)CN(O)CCN)N[N+](=O)[O-]

$$$$
2HX4_4HX_B_799
     RDKit          3D

 24 24  0  0  0  0  0  0  0  0999 V2000
   10.6200    0.2730   60.8850 N   0  0  0  0  0  0  0  0  0  0  0  0
   10.4790    1.1500   61.8120 O   0  0  0  0  0  0  0  0  0  0  0  0
   10.0370   -0.8550   61.0050 O   0  0  0  0  0  0  0  0  0  0  0  0
   16.5500   -0.6790   56.3480 N   0  0  0  0  0  0  0  0  0  0  0  0
   16.3060    0.6070   57.0510 C   0  0  0  0  0  0  0  0  0  0  0  0
   17.6000    1.4540   57.1710 C   0  0  0  0  0  0  0  0  0  0  0  0
   18.6730    0.8800   57.3790 O   0  0  0  0  0  0  0  0  0  0  0  0
   15.7230    0.2220   58.4270 C   0  0  0  0  0  0  0  0  0  0  0  0
   14.8660    1.3220   59.0870 C   0  0  0  0  0  0  0  0  0  0  0  0
   13.5510    1.5800   58.3610 C   0  0  0  0  0  0  0  0  0  0  0  0
   12.8750    0.2920   58.0870 N   0  0  0  0  0  0  0  0  0  0  0  0
   11.8340   -0.1160   58.7970 C   0  0  0  0  0  0  0  0  0  0  0  0
   11.3460    0.6140   59.8020 N   0  0  0  0  0  0  0  0  0  0  0  0
   11.3100   -1.2980   58.4450 N   0  0  0  0  0  0  0  0  0  0  0  0
   17.8410    7.8120   54.9450 N   0  0  0  0  0  0  0  0  0  0  0  0
   17.4940    2.8010   57.0450 N   0  0  0  0  0  0  0  0  0  0  0  0
   16.2130    3.3760   56.8020 O   0  0  0  0  0  0  0  0  0  0  0  0
   19.3100    4.3880   54.9940 N   0  0  0  0  0  0  0  0  0  0  0  0
   18.3270    5.4050   55.4360 C   0  0  0  0  0  0  0  0  0  0  0  0
   18.7110    6.8150   54.9530 C   0  0  0  0  0  0  0  0  0  0  0  0
   19.8460    7.0690   54.5420 O   0  0  0  0  0  0  0  0  0  0  0  0
   18.3040    5.2370   56.9620 C   0  0  0  0  0  0  0  0  0  0  0  0
   18.6810    3.7400   57.1460 C   0  0  0  0  0  0  0  0  0  0  0  0
   19.8670    3.6630   56.1570 C   0  0  0  0  0  0  0  0  0  0  0  0
  2  1  1  0
  3  1  2  0
 13  1  1  0
  5  4  1  0
  6  5  1  0
  8  5  1  0
  7  6  2  0
 16  6  1  0
  9  8  1  0
 10  9  1  0
 11 10  1  0
 12 11  1  0
 13 12  1  0
 14 12  2  0
 20 15  1  0
 17 16  1  0
 23 16  1  0
 19 18  1  0
 24 18  1  0
 20 19  1  0
 22 19  1  0
 21 20  2  0
 23 22  1  0
 24 23  1  0
M  CHG  2   1   1   2  -1
A    1
NO
A    2
O2
A    3
O3
A    4
N
A    5
CA
A    6
C
A    7
O
A    8
CB
A    9
CG
A   10
CD
A   11
NE
A   12
CZ
A   13
NH1
A   14
NH2
A   15
N1'
A   16
N2'
A   17
O2'
A   18
N'
A   19
CA'
A   20
C'
A   21
O'
A   22
CB'
A   23
CG'
A   24
CD'
M  END
>  <Id>  (220) 
2HX4_4HX_B_799

>  <ChainId>  (220) 
B

>  <AsymId>  (220) 
K

>  <SeqNum>  (220) 
799

>  <Name>  (220) 
(4R)-4-(HYDROXY{N~5~-[IMINO(NITROAMINO)METHYL]-L-ORNITHYL}AMINO)-L-PROLINAMIDE

>  <SystematicName>  (220) 
(2S,4R)-4-[[(2S)-2-amino-5-[(N-nitrocarbamimidoyl)amino]pentanoyl]-hydroxy-amino]pyrrolidine-2-carboxamide

>  <Synonyms>  (220) 
4-N-(NW-NITRO-L-ARGININYL)-TRANS-4-HYDROXYAMINO-L-PROLINE AMIDE

>  <Type>  (220) 
NON-POLYMER

>  <Formula>  (220) 
C11 H22 N8 O5

>  <ObservedFormula>  (220) 
C11 N8 O5

>  <MolecularWeight>  (220) 
346.343

>  <ModifiedDate>  (220) 
2011-06-04

>  <Parent>  (220) 


>  <OneLetterCode>  (220) 


>  <SubcomponentList>  (220) 


>  <AmbiguousFlag>  (220) 


>  <InsertionCode>  (220) 


>  <InstanceId>  (220) 
2HX4_4HX_B_799

>  <ChemCompId>  (220) 
4HX

>  <PdbId>  (220) 
2HX4

>  <ResidueNumber>  (220) 
799

>  <InChI>  (220) 
InChI=1S/C11H22N8O5/c12-7(2-1-3-15-11(14)17-19(23)24)10(21)18(22)6-4-8(9(13)20)16-5-6/h6-8,16,22H,1-5,12H2,(H2,13,20)(H3,14,15,17)/t6-,7+,8+/m1/s1

>  <InChIKey>  (220) 
CTHMJCQUZVLLJU-CSMHCCOUSA-N

>  <SMILES>  (220) 
[H]/N=C(/NCCC[C@@H](C(=O)N([C@@H]1C[C@H](NC1)C(=O)N)O)N)\N[N+](=O)[O-]

>  <MissingHeavyAtoms>  (220) 
0

>  <Model>  (220) 
1

>  <AltIds>  (220) 


>  <pKI>  (220) 
6.51

>  <ChemblID>  (220) 
-

>  <standardized_canonical_smiles>  (220) 
N=C(NCCC[C@H](N)C(=O)N(O)[C@H]1CN[C@H](C(N)=O)C1)N[N+](=O)[O-]

$$$$
