1LHC_DP7_H_400
     RDKit          3D

 33 34  0  0  0  0  0  0  0  0999 V2000
   10.5540  -10.7490   24.9570 N   0  0  0  0  0  0  0  0  0  0  0  0
   18.1530  -16.1470   25.0630 C   0  0  0  0  0  0  0  0  0  0  0  0
   14.0400  -10.6470   17.3290 O   0  0  0  0  0  0  0  0  0  0  0  0
   20.0420  -14.4220   20.2840 C   0  0  0  0  0  0  0  0  0  0  0  0
   21.9520  -15.6830   24.6230 C   0  0  0  0  0  0  0  0  0  0  0  0
   16.2060  -11.7670   20.3800 N   0  0  0  0  0  0  0  0  0  0  0  0
   16.3480  -13.9610   19.8640 O   0  0  0  0  0  0  0  0  0  0  0  0
   10.6870  -12.0550   24.4080 C   0  0  0  0  0  0  0  0  0  0  0  0
   16.4820  -14.1910   23.2090 O   0  0  0  0  0  0  0  0  0  0  0  0
   18.1490  -13.1300   21.2240 C   0  0  0  0  0  0  0  0  0  0  0  0
   19.5890  -15.5820   25.1850 C   0  0  0  0  0  0  0  0  0  0  0  0
   15.8020  -17.8590   22.8860 C   0  0  0  0  0  0  0  0  0  0  0  0
   21.1590  -13.9760   26.1020 C   0  0  0  0  0  0  0  0  0  0  0  0
   16.5130  -18.4380   22.0500 O   0  0  0  0  0  0  0  0  0  0  0  0
   22.2020  -14.5660   25.4200 C   0  0  0  0  0  0  0  0  0  0  0  0
   18.3140  -14.4440   21.9170 N   0  0  0  0  0  0  0  0  0  0  0  0
   14.9200  -11.6050   19.6240 C   0  0  0  0  0  0  0  0  0  0  0  0
   17.4530  -14.8930   22.8660 C   0  0  0  0  0  0  0  0  0  0  0  0
   12.4600  -11.3720   22.6580 C   0  0  0  0  0  0  0  0  0  0  0  0
   13.0240  -11.9600   21.3870 C   0  0  0  0  0  0  0  0  0  0  0  0
    9.9480  -12.9740   24.8340 N   0  0  0  0  0  0  0  0  0  0  0  0
   13.8680  -10.9770   20.5780 C   0  0  0  0  0  0  0  0  0  0  0  0
   14.3440  -18.2790   23.1070 C   0  0  0  0  0  0  0  0  0  0  0  0
   19.3610  -13.0570   20.2790 C   0  0  0  0  0  0  0  0  0  0  0  0
   20.6570  -16.2080   24.4980 C   0  0  0  0  0  0  0  0  0  0  0  0
   11.6320  -12.3340   23.3950 N   0  0  0  0  0  0  0  0  0  0  0  0
   19.8530  -14.4670   25.9800 C   0  0  0  0  0  0  0  0  0  0  0  0
   17.6100  -16.2780   23.5950 C   0  0  0  0  0  0  0  0  0  0  0  0
   16.3120  -11.0190   17.5080 O   0  0  0  0  0  0  0  0  0  0  0  0
   19.4810  -15.1750   21.4100 C   0  0  0  0  0  0  0  0  0  0  0  0
   16.8130  -12.9650   20.4300 C   0  0  0  0  0  0  0  0  0  0  0  0
   16.2400  -16.8490   23.6650 N   0  0  0  0  0  0  0  0  0  0  0  0
   15.1520  -10.7780   18.3210 B   0  0  0  0  0  0  0  0  0  0  0  0
 31  7  2  0
 18 16  1  0
 27 11  2  0
 12 14  2  0
  5 25  2  0
 17 22  1  0
 33 29  1  0
 33  3  1  0
 10 31  1  0
 10 16  1  0
 20 19  1  0
 15 13  2  0
  2 11  1  0
  5 15  1  0
 17  6  1  0
 31  6  1  0
  8 21  1  0
  8 26  1  0
 10 24  1  0
 12 23  1  0
 19 26  1  0
  2 28  1  0
  8  1  2  0
 30 16  1  0
  4 30  1  0
 17 33  1  0
 24  4  1  0
 18 28  1  0
 11 25  1  0
 22 20  1  0
 13 27  1  0
 18  9  2  0
 28 32  1  0
 12 32  1  0
A    1
N4
A    2
C13
A    3
O2
A    4
C10
A    5
C17
A    6
N1
A    7
O3
A    8
C6
A    9
O4
A   10
C7
A   11
C21
A   12
C15
A   13
C19
A   14
O5
A   15
C18
A   16
N5
A   17
C1
A   18
C12
A   19
C5
A   20
C4
A   21
N3
A   22
C3
A   23
C16
A   24
C9
A   25
C22
A   26
N2
A   27
C20
A   28
C14
A   29
O1
A   30
C11
A   31
C8
A   32
N6
A   33
B2
M  END
>  <InstanceId>  (1) 
1LHC_DP7_H_400

>  <ChemCompId>  (1) 
DP7

>  <PdbId>  (1) 
1LHC

>  <ChainId>  (1) 
H

>  <ResidueNumber>  (1) 
400

>  <InsertionCode>  (1) 


>  <Model>  (1) 
1

>  <AltIds>  (1) 


>  <MissingHeavyAtoms>  (1) 
0

>  <ObservedFormula>  (1) 
C21 N6 O5 B

>  <AsymId>  (1) 
D

>  <SeqNum>  (1) 
400

>  <Name>  (1) 
AC-(D)PHE-PRO-BOROARG-OH

>  <SystematicName>  (1) 
[(1R)-1-[[(2S)-1-[(2R)-2-acetamido-3-phenyl-propanoyl]pyrrolidin-2-yl]carbonylamino]-4-carbamimidamido-butyl]boronic acid

>  <Synonyms>  (1) 


>  <Type>  (1) 
NON-POLYMER

>  <Formula>  (1) 
C21 H33 B N6 O5

>  <MolecularWeight>  (1) 
460.335

>  <ModifiedDate>  (1) 
2011-06-04

>  <Parent>  (1) 


>  <OneLetterCode>  (1) 


>  <SubcomponentList>  (1) 


>  <AmbiguousFlag>  (1) 
N

>  <InChI>  (1) 
null

>  <InChIKey>  (1) 
null

>  <SMILES>  (1) 
[H]/N=C(/N)\NCCC[C@@H](B(O)O)NC(=O)[C@@H]1CCCN1C(=O)[C@@H](Cc2ccccc2)NC(=O)C

>  <pKI>  (1) 
10.4

>  <ChemblID>  (1) 
CHEMBL290376

>  <standardized_canonical_smiles>  (1) 
CC(=O)N[C@H](Cc1ccccc1)C(=O)N1CCC[C@H]1C(=O)N[C@@H](CCCNC(=N)N)B(O)O

$$$$
1BMN_BM9_H_1
     RDKit          3D

 37 40  0  0  0  0  0  0  0  0999 V2000
   59.3950   21.6300   19.8090 C   0  0  0  0  0  0  0  0  0  0  0  0
   60.2050   21.7390   20.5730 O   0  0  0  0  0  0  0  0  0  0  0  0
   59.4870   20.3580   18.9910 C   0  0  0  0  0  0  0  0  0  0  0  0
   60.6780   19.5970   19.3770 C   0  0  0  0  0  0  0  0  0  0  0  0
   60.6140   18.4390   18.6560 N   0  0  0  0  0  0  0  0  0  0  0  0
   60.3960   18.5600   17.4550 C   0  0  0  0  0  0  0  0  0  0  0  0
   59.4920   19.1930   16.9900 C   0  0  0  0  0  0  0  0  0  0  0  0
   59.4690   20.4790   17.5640 C   0  0  0  0  0  0  0  0  0  0  0  0
   60.5970   17.1690   19.2200 C   0  0  0  0  0  0  0  0  0  0  0  0
   60.6400   16.9040   20.5280 N   0  0  0  0  0  0  0  0  0  0  0  0
   60.6120   16.0540   18.3630 N   0  0  0  0  0  0  0  0  0  0  0  0
   58.5860   22.4530   20.0900 N   0  0  0  0  0  0  0  0  0  0  0  0
   58.5680   23.5450   21.2600 C   0  0  0  0  0  0  0  0  0  0  0  0
   57.5030   22.9480   22.2540 C   0  0  0  0  0  0  0  0  0  0  0  0
   57.9520   21.8170   22.8970 N   0  0  0  0  0  0  0  0  0  0  0  0
   58.2300   22.3280   24.1530 C   0  0  0  0  0  0  0  0  0  0  0  0
   57.9250   23.8430   24.1400 C   0  0  0  0  0  0  0  0  0  0  0  0
   57.0790   24.0950   23.2510 C   0  0  0  0  0  0  0  0  0  0  0  0
   57.8950   18.7220   23.7340 N   0  0  0  0  0  0  0  0  0  0  0  0
   58.7780   19.5890   23.5690 C   0  0  0  0  0  0  0  0  0  0  0  0
   58.0230   20.7270   22.6610 C   0  0  0  0  0  0  0  0  0  0  0  0
   57.4400   20.2500   21.4730 O   0  0  0  0  0  0  0  0  0  0  0  0
   59.9170   19.2350   22.7260 C   0  0  0  0  0  0  0  0  0  0  0  0
   60.7850   18.1220   23.4170 O   0  0  0  0  0  0  0  0  0  0  0  0
   56.7000   18.2600   25.0930 S   0  0  0  0  0  0  0  0  0  0  0  0
   57.1850   18.4850   26.5060 O   0  0  0  0  0  0  0  0  0  0  0  0
   56.6300   16.8560   25.0360 O   0  0  0  0  0  0  0  0  0  0  0  0
   55.4540   20.3230   25.1070 C   0  0  0  0  0  0  0  0  0  0  0  0
   55.5370   19.1170   24.6810 C   0  0  0  0  0  0  0  0  0  0  0  0
   54.5820   18.6260   23.7830 C   0  0  0  0  0  0  0  0  0  0  0  0
   53.5880   19.3990   23.3410 C   0  0  0  0  0  0  0  0  0  0  0  0
   52.5390   21.5670   23.4700 C   0  0  0  0  0  0  0  0  0  0  0  0
   52.3570   22.7830   23.9360 C   0  0  0  0  0  0  0  0  0  0  0  0
   53.1930   23.2790   24.8610 C   0  0  0  0  0  0  0  0  0  0  0  0
   54.2620   22.5190   25.2530 C   0  0  0  0  0  0  0  0  0  0  0  0
   54.4240   21.1480   24.7320 C   0  0  0  0  0  0  0  0  0  0  0  0
   53.5240   20.7250   23.8120 C   0  0  0  0  0  0  0  0  0  0  0  0
  2  1  2  0
  3  1  1  0
 12  1  1  0
  4  3  1  0
  8  3  1  0
  5  4  1  0
  6  5  1  0
  9  5  1  0
  7  6  1  0
  8  7  1  0
 10  9  2  0
 11  9  1  0
 13 12  1  0
 14 13  1  0
 15 14  1  0
 18 14  1  0
 16 15  1  0
 21 15  1  0
 17 16  1  0
 18 17  1  0
 20 19  1  0
 25 19  1  0
 21 20  1  0
 23 20  1  0
 22 21  2  0
 24 23  1  0
 26 25  2  0
 27 25  2  0
 29 25  1  0
 29 28  2  0
 36 28  1  0
 30 29  1  0
 31 30  2  0
 37 31  1  0
 33 32  1  0
 37 32  2  0
 34 33  2  0
 35 34  1  0
 36 35  2  0
 37 36  1  0
A    1
C27
A    2
O28
A    3
C29
A    4
C30
A    5
N31
A    6
C32
A    7
C33
A    8
C34
A    9
C35
A   10
N37
A   11
N36
A   12
N26
A   13
C25
A   14
C24
A   15
N20
A   16
C21
A   17
C22
A   18
C23
A   19
N14
A   20
C15
A   21
C18
A   22
O19
A   23
C16
A   24
O17
A   25
S11
A   26
O13
A   27
O12
A   28
C2
A   29
C1
A   30
C8
A   31
C7
A   32
C6
A   33
C5
A   34
C4
A   35
C3
A   36
C9
A   37
C10
M  END
>  <Id>  (2) 
1BMN_BM9_H_1

>  <ChainId>  (2) 
H

>  <AsymId>  (2) 
D

>  <SeqNum>  (2) 
1

>  <Name>  (2) 
[S-(R*,R*)]-1-(AMINOIMINOMETHYL)-N-[[1-[N-[(2-NAPHTHALENYLSULFONYL)-L-SERYL]-3-PYRROLIDINYL]METHYL]-3-PIPERIDENECARBOXAMIDE

>  <SystematicName>  (2) 
(3S)-1-carbamimidoyl-N-[[(2S)-1-[(2S)-3-hydroxy-2-(naphthalen-2-ylsulfonylamino)propanoyl]pyrrolidin-2-yl]methyl]piperidine-3-carboxamide

>  <Synonyms>  (2) 
BMS-189090

>  <Type>  (2) 
peptide-like

>  <Formula>  (2) 
C25 H34 N6 O5 S

>  <ObservedFormula>  (2) 
C25 S N6 O5

>  <MolecularWeight>  (2) 
530.64

>  <ModifiedDate>  (2) 
2012-01-05

>  <Parent>  (2) 


>  <OneLetterCode>  (2) 


>  <SubcomponentList>  (2) 
01M P2Y SER NAS

>  <AmbiguousFlag>  (2) 
N

>  <InsertionCode>  (2) 


>  <InstanceId>  (2) 
1BMN_BM9_H_1

>  <ChemCompId>  (2) 
BM9

>  <PdbId>  (2) 
1BMN

>  <ResidueNumber>  (2) 
1

>  <InChI>  (2) 
InChI=1S/C25H34N6O5S/c26-25(27)30-11-3-7-19(15-30)23(33)28-14-20-8-4-12-31(20)24(34)22(16-32)29-37(35,36)21-10-9-17-5-1-2-6-18(17)13-21/h1-2,5-6,9-10,13,19-20,22,29,32H,3-4,7-8,11-12,14-16H2,(H3,26,27)(H,28,33)/t19-,20-,22-/m0/s1

>  <InChIKey>  (2) 
JWNJPEKBZMEXIU-ONTIZHBOSA-N

>  <SMILES>  (2) 
[H]/N=C(\N)/N1CCC[C@@H](C1)C(=O)NC[C@@H]2CCCN2C(=O)[C@H](CO)NS(=O)(=O)c3ccc4ccccc4c3

>  <MissingHeavyAtoms>  (2) 
0

>  <Model>  (2) 
1

>  <AltIds>  (2) 


>  <pKI>  (2) 
8.45

>  <ChemblID>  (2) 
CHEMBL138877

>  <standardized_canonical_smiles>  (2) 
N=C(N)N1CCC[C@H](C(=O)NC[C@@H]2CCCN2C(=O)[C@H](CO)NS(=O)(=O)c2ccc3ccccc3c2)C1

$$$$
3TU7_0BM_H_1
     RDKit          3D

 33 35  0  0  0  0  0  0  0  0999 V2000
   25.1880    6.8250   23.5700 S   0  0  0  0  0  0  0  0  0  0  0  0
   25.4090    6.4220   24.9210 O   0  0  0  0  0  0  0  0  0  0  0  0
   24.8250    8.1800   23.2980 O   0  0  0  0  0  0  0  0  0  0  0  0
   23.9730    5.7800   22.8720 C   0  0  0  0  0  0  0  0  0  0  0  0
   26.6110    6.5780   22.7990 N   0  0  0  0  0  0  0  0  0  0  0  0
   27.3440    5.3200   22.8690 C   0  0  0  0  0  0  0  0  0  0  0  0
   26.9480    4.5060   21.6280 C   0  0  0  0  0  0  0  0  0  0  0  0
   26.8810    5.0780   20.5540 O   0  0  0  0  0  0  0  0  0  0  0  0
   28.8430    5.6500   22.8740 C   0  0  0  0  0  0  0  0  0  0  0  0
   29.7150    4.4230   22.9550 C   0  0  0  0  0  0  0  0  0  0  0  0
   30.4780    4.0190   21.8630 C   0  0  0  0  0  0  0  0  0  0  0  0
   29.7700    3.6620   24.1190 C   0  0  0  0  0  0  0  0  0  0  0  0
   31.2690    2.8820   21.9310 C   0  0  0  0  0  0  0  0  0  0  0  0
   30.5640    2.5250   24.1870 C   0  0  0  0  0  0  0  0  0  0  0  0
   31.3130    2.1350   23.0950 C   0  0  0  0  0  0  0  0  0  0  0  0
   26.6090    3.2040   21.7600 N   0  0  0  0  0  0  0  0  0  0  0  0
   26.2120    2.4040   20.5940 C   0  0  0  0  0  0  0  0  0  0  0  0
   24.8490    2.8670   20.0890 C   0  0  0  0  0  0  0  0  0  0  0  0
   24.0050    3.2950   20.8750 O   0  0  0  0  0  0  0  0  0  0  0  0
   26.1330    0.9690   21.1500 C   0  0  0  0  0  0  0  0  0  0  0  0
   26.8060    1.0140   22.4990 C   0  0  0  0  0  0  0  0  0  0  0  0
   26.5430    2.4040   22.9930 C   0  0  0  0  0  0  0  0  0  0  0  0
   24.6430    2.8100   18.7790 N   0  0  0  0  0  0  0  0  0  0  0  0
   23.4130    3.3180   18.1880 C   0  0  0  0  0  0  0  0  0  0  0  0
   23.4260    4.7010   17.5500 C   0  0  0  0  0  0  0  0  0  0  0  0
   24.2250    4.7340   16.2500 C   0  0  0  0  0  0  0  0  0  0  0  0
   24.0700    6.0750   15.5150 C   0  0  0  0  0  0  0  0  0  0  0  0
   24.4140    7.2150   16.3830 N   0  0  0  0  0  0  0  0  0  0  0  0
   23.6990    7.2310   17.6770 C   0  0  0  0  0  0  0  0  0  0  0  0
   23.8340    5.8930   18.4170 C   0  0  0  0  0  0  0  0  0  0  0  0
   24.8860    8.4200   15.7470 C   0  0  0  0  0  0  0  0  0  0  0  0
   24.7240    9.6360   16.5220 N   0  0  0  0  0  0  0  0  0  0  0  0
   25.4370    8.5360   14.5790 N   0  0  0  0  0  0  0  0  0  0  0  0
  2  1  2  0
  3  1  2  0
  4  1  1  0
  5  1  1  0
  6  5  1  0
  7  6  1  0
  9  6  1  0
  8  7  2  0
 16  7  1  0
 10  9  1  0
 11 10  2  0
 12 10  1  0
 13 11  1  0
 14 12  2  0
 15 13  2  0
 15 14  1  0
 17 16  1  0
 22 16  1  0
 18 17  1  0
 20 17  1  0
 19 18  2  0
 23 18  1  0
 21 20  1  0
 22 21  1  0
 24 23  1  0
 25 24  1  0
 26 25  1  0
 30 25  1  0
 27 26  1  0
 28 27  1  0
 29 28  1  0
 31 28  1  0
 30 29  1  0
 32 31  1  0
 33 31  2  0
A    1
S10
A    2
O11
A    3
O12
A    4
C13
A    5
N9
A    6
C8
A    7
C15
A    8
O16
A    9
C7
A   10
C6
A   11
C1
A   12
C5
A   13
C2
A   14
C4
A   15
C3
A   16
N17
A   17
C21
A   18
C22
A   19
O23
A   20
C20
A   21
C19
A   22
C18
A   23
N24
A   24
C25
A   25
C26
A   26
C27
A   27
C28
A   28
N29
A   29
C30
A   30
C31
A   31
C32
A   32
N33
A   33
N34
M  END
>  <Id>  (3) 
3TU7_0BM_H_1

>  <ChainId>  (3) 
H

>  <AsymId>  (3) 
D

>  <SeqNum>  (3) 
1

>  <Name>  (3) 
N-(methylsulfonyl)-D-phenylalanyl-N-[(1-carbamimidoylpiperidin-4-yl)methyl]-L-prolinamide

>  <SystematicName>  (3) 
(2S)-N-[(1-carbamimidoylpiperidin-4-yl)methyl]-1-[(2R)-2-(methylsulfonylamino)-3-phenyl-propanoyl]pyrrolidine-2-carboxamide

>  <Synonyms>  (3) 


>  <Type>  (3) 
NON-POLYMER

>  <Formula>  (3) 
C22 H34 N6 O4 S

>  <ObservedFormula>  (3) 
S C22 N6 O4

>  <MolecularWeight>  (3) 
478.608

>  <ModifiedDate>  (3) 
2011-10-07

>  <Parent>  (3) 


>  <OneLetterCode>  (3) 


>  <SubcomponentList>  (3) 
03S DPN PRO 03N

>  <AmbiguousFlag>  (3) 
N

>  <InsertionCode>  (3) 


>  <InstanceId>  (3) 
3TU7_0BM_H_1

>  <ChemCompId>  (3) 
0BM

>  <PdbId>  (3) 
3TU7

>  <ResidueNumber>  (3) 
1

>  <InChI>  (3) 
InChI=1S/C22H34N6O4S/c1-33(31,32)26-18(14-16-6-3-2-4-7-16)21(30)28-11-5-8-19(28)20(29)25-15-17-9-12-27(13-10-17)22(23)24/h2-4,6-7,17-19,26H,5,8-15H2,1H3,(H3,23,24)(H,25,29)/t18-,19+/m1/s1

>  <InChIKey>  (3) 
UCVAQBJLJIKTFJ-MOPGFXCFSA-N

>  <SMILES>  (3) 
[H]/N=C(\N)/N1CCC(CC1)CNC(=O)[C@@H]2CCCN2C(=O)[C@@H](Cc3ccccc3)NS(=O)(=O)C

>  <MissingHeavyAtoms>  (3) 
0

>  <Model>  (3) 
1

>  <AltIds>  (3) 


>  <pKI>  (3) 
8.09

>  <ChemblID>  (3) 
CHEMBL356065

>  <standardized_canonical_smiles>  (3) 
CS(=O)(=O)N[C@H](Cc1ccccc1)C(=O)N1CCC[C@H]1C(=O)NCC1CCN(C(=N)N)CC1

$$$$
4BAH_MEL_B_1291
     RDKit          3D

 31 33  0  0  0  0  0  0  0  0999 V2000
   18.8170  -14.4230   24.3390 C   0  0  0  0  0  0  0  0  0  0  0  0
   19.0530  -15.7530   25.0720 C   0  0  0  0  0  0  0  0  0  0  0  0
   19.5190  -15.4480   26.5040 C   0  0  0  0  0  0  0  0  0  0  0  0
   20.8090  -14.6100   26.5010 C   0  0  0  0  0  0  0  0  0  0  0  0
   20.6120  -13.2860   25.7470 C   0  0  0  0  0  0  0  0  0  0  0  0
   20.1140  -13.5790   24.3180 C   0  0  0  0  0  0  0  0  0  0  0  0
   17.0340  -15.4950   22.9870 N   0  0  0  0  0  0  0  0  0  0  0  0
   18.2790  -14.6860   22.9180 C   0  0  0  0  0  0  0  0  0  0  0  0
   17.9420  -13.3730   22.2630 C   0  0  0  0  0  0  0  0  0  0  0  0
   16.8930  -12.8090   22.5600 O   0  0  0  0  0  0  0  0  0  0  0  0
   18.7350  -12.7990   21.3370 N   0  0  0  0  0  0  0  0  0  0  0  0
   18.5020  -11.6230   20.4940 C   0  0  0  0  0  0  0  0  0  0  0  0
   17.1070  -11.7900   19.9020 C   0  0  0  0  0  0  0  0  0  0  0  0
   16.7900  -12.8720   19.4230 O   0  0  0  0  0  0  0  0  0  0  0  0
   16.1760  -10.8150   20.0040 N   0  0  0  0  0  0  0  0  0  0  0  0
   14.8250  -11.0780   19.4730 C   0  0  0  0  0  0  0  0  0  0  0  0
   13.8440  -11.0140   20.6130 C   0  0  0  0  0  0  0  0  0  0  0  0
   13.4640  -12.1670   21.2840 C   0  0  0  0  0  0  0  0  0  0  0  0
   12.5810  -12.0810   22.3580 C   0  0  0  0  0  0  0  0  0  0  0  0
   12.0990  -10.8210   22.7640 C   0  0  0  0  0  0  0  0  0  0  0  0
   12.4940   -9.6610   22.0740 C   0  0  0  0  0  0  0  0  0  0  0  0
   13.3900   -9.7690   21.0310 C   0  0  0  0  0  0  0  0  0  0  0  0
   11.1190  -10.7320   23.8780 C   0  0  0  0  0  0  0  0  0  0  0  0
   10.8890   -9.5960   24.4700 N   0  0  0  0  0  0  0  0  0  0  0  0
   10.3990  -11.8540   24.2650 N   0  0  0  0  0  0  0  0  0  0  0  0
   19.6700  -12.0180   19.5700 C   0  0  0  0  0  0  0  0  0  0  0  0
   19.9900  -13.0980   20.6110 C   0  0  0  0  0  0  0  0  0  0  0  0
   16.3970  -15.8260   21.6860 C   0  0  0  0  0  0  0  0  0  0  0  0
   14.9890  -16.3550   21.8810 C   0  0  0  0  0  0  0  0  0  0  0  0
   14.5300  -16.5920   22.9810 O   0  0  0  0  0  0  0  0  0  0  0  0
   14.2300  -16.5970   20.8100 O   0  0  0  0  0  0  0  0  0  0  0  0
  2  1  1  0
  6  1  1  0
  8  1  1  0
  3  2  1  0
  4  3  1  0
  5  4  1  0
  6  5  1  0
  8  7  1  0
 28  7  1  0
  9  8  1  0
 10  9  2  0
 11  9  1  0
 12 11  1  0
 27 11  1  0
 13 12  1  0
 26 12  1  0
 14 13  2  0
 15 13  1  0
 16 15  1  0
 17 16  1  0
 18 17  2  0
 22 17  1  0
 19 18  1  0
 20 19  2  0
 21 20  1  0
 23 20  1  0
 22 21  2  0
 24 23  2  0
 25 23  1  0
 27 26  1  0
 29 28  1  0
 30 29  1  0
 31 29  2  0
A    1
C1
A    2
C2
A    3
C3
A    4
C4
A    5
C5
A    6
C6
A    7
N7
A    8
C8
A    9
C9
A   10
O0
A   11
N11
A   12
C12
A   13
C13
A   14
O14
A   15
N15
A   16
C16
A   17
C17
A   18
C18
A   19
C19
A   20
C20
A   21
C21
A   22
C22
A   23
C23
A   24
N24
A   25
N25
A   26
C26
A   27
C27
A   28
C28
A   29
C29
A   30
O30
A   31
O31
M  END
>  <Id>  (4) 
4BAH_MEL_B_1291

>  <ChainId>  (4) 
B

>  <AsymId>  (4) 
E

>  <SeqNum>  (4) 
1291

>  <Name>  (4) 
[((1R)-2-{(2S)-2-[({4-[AMINO(IMINO)METHYL]BENZYL}AMINO)CARBONYL]AZETIDINYL}-1-CYCLOHEXYL-2-OXOETHYL)AMINO]ACETIC ACID

>  <SystematicName>  (4) 
2-[[(1R)-2-[(2S)-2-[(4-carbamimidoylphenyl)methylcarbamoyl]azetidin-1-yl]-1-cyclohexyl-2-oxo-ethyl]amino]ethanoic acid

>  <Synonyms>  (4) 
MELAGATRAN (ASTRA-ZENECA)

>  <Type>  (4) 
NON-POLYMER

>  <Formula>  (4) 
C22 H31 N5 O4

>  <ObservedFormula>  (4) 
C22 N5 O4

>  <MolecularWeight>  (4) 
429.513

>  <ModifiedDate>  (4) 
2011-06-04

>  <Parent>  (4) 


>  <OneLetterCode>  (4) 


>  <SubcomponentList>  (4) 


>  <AmbiguousFlag>  (4) 
N

>  <InsertionCode>  (4) 


>  <InstanceId>  (4) 
4BAH_MEL_B_1291

>  <ChemCompId>  (4) 
MEL

>  <PdbId>  (4) 
4BAH

>  <ResidueNumber>  (4) 
1291

>  <InChI>  (4) 
InChI=1S/C22H31N5O4/c23-20(24)16-8-6-14(7-9-16)12-26-21(30)17-10-11-27(17)22(31)19(25-13-18(28)29)15-4-2-1-3-5-15/h6-9,15,17,19,25H,1-5,10-13H2,(H3,23,24)(H,26,30)(H,28,29)/t17-,19+/m0/s1

>  <InChIKey>  (4) 
DKWNMCUOEDMMIN-PKOBYXMFSA-N

>  <SMILES>  (4) 
c1cc(ccc1CNC(=O)[C@@H]2CCN2C(=O)[C@@H](C3CCCCC3)NCC(=O)O)C(=N)N

>  <MissingHeavyAtoms>  (4) 
0

>  <Model>  (4) 
1

>  <AltIds>  (4) 


>  <pKI>  (4) 
8.84

>  <ChemblID>  (4) 
CHEMBL266349

>  <standardized_canonical_smiles>  (4) 
N=C(N)c1ccc(CNC(=O)[C@@H]2CCN2C(=O)[C@H](NCC(=O)O)C2CCCCC2)cc1

$$$$
1K22_MEL_H_999
     RDKit          3D

 31 33  0  0  0  0  0  0  0  0999 V2000
   18.7400  -14.4090   24.4190 C   0  0  0  0  0  0  0  0  0  0  0  0
   18.9060  -15.7460   25.2000 C   0  0  0  0  0  0  0  0  0  0  0  0
   19.4890  -15.5290   26.6320 C   0  0  0  0  0  0  0  0  0  0  0  0
   20.8110  -14.7180   26.5380 C   0  0  0  0  0  0  0  0  0  0  0  0
   20.5890  -13.3450   25.8180 C   0  0  0  0  0  0  0  0  0  0  0  0
   20.0880  -13.6120   24.3660 C   0  0  0  0  0  0  0  0  0  0  0  0
   17.0410  -15.5660   22.9810 N   0  0  0  0  0  0  0  0  0  0  0  0
   18.2480  -14.6920   22.9380 C   0  0  0  0  0  0  0  0  0  0  0  0
   17.8690  -13.4020   22.2810 C   0  0  0  0  0  0  0  0  0  0  0  0
   16.8270  -12.7900   22.6660 O   0  0  0  0  0  0  0  0  0  0  0  0
   18.6150  -12.9120   21.2930 N   0  0  0  0  0  0  0  0  0  0  0  0
   18.4550  -11.6940   20.4810 C   0  0  0  0  0  0  0  0  0  0  0  0
   17.0860  -11.8150   19.8150 C   0  0  0  0  0  0  0  0  0  0  0  0
   16.8180  -12.8260   19.1830 O   0  0  0  0  0  0  0  0  0  0  0  0
   16.1420  -10.7990   19.9520 N   0  0  0  0  0  0  0  0  0  0  0  0
   14.7890  -11.0010   19.4880 C   0  0  0  0  0  0  0  0  0  0  0  0
   13.8470  -10.9690   20.6190 C   0  0  0  0  0  0  0  0  0  0  0  0
   13.2900   -9.7430   21.0060 C   0  0  0  0  0  0  0  0  0  0  0  0
   12.3680   -9.6780   22.1010 C   0  0  0  0  0  0  0  0  0  0  0  0
   12.0130  -10.8460   22.8000 C   0  0  0  0  0  0  0  0  0  0  0  0
   12.5810  -12.1100   22.4090 C   0  0  0  0  0  0  0  0  0  0  0  0
   13.5050  -12.1640   21.3070 C   0  0  0  0  0  0  0  0  0  0  0  0
   11.1080  -10.7790   23.8690 C   0  0  0  0  0  0  0  0  0  0  0  0
   10.9490   -9.6150   24.5710 N   0  0  0  0  0  0  0  0  0  0  0  0
   10.3630  -11.8800   24.2150 N   0  0  0  0  0  0  0  0  0  0  0  0
   19.7830  -11.9190   19.8420 C   0  0  0  0  0  0  0  0  0  0  0  0
   19.8320  -13.2830   20.5760 C   0  0  0  0  0  0  0  0  0  0  0  0
   16.4900  -16.1470   21.7190 C   0  0  0  0  0  0  0  0  0  0  0  0
   14.9780  -16.4710   21.8140 C   0  0  0  0  0  0  0  0  0  0  0  0
   14.3890  -16.5990   23.0010 O   0  0  0  0  0  0  0  0  0  0  0  0
   14.2770  -16.6270   20.7220 O   0  0  0  0  0  0  0  0  0  0  0  0
  2  1  1  0
  6  1  1  0
  8  1  1  0
  3  2  1  0
  4  3  1  0
  5  4  1  0
  6  5  1  0
  8  7  1  0
 28  7  1  0
  9  8  1  0
 10  9  2  0
 11  9  1  0
 12 11  1  0
 27 11  1  0
 13 12  1  0
 26 12  1  0
 14 13  2  0
 15 13  1  0
 16 15  1  0
 17 16  1  0
 18 17  2  0
 22 17  1  0
 19 18  1  0
 20 19  2  0
 21 20  1  0
 23 20  1  0
 22 21  2  0
 24 23  2  0
 25 23  1  0
 27 26  1  0
 29 28  1  0
 30 29  1  0
 31 29  2  0
A    1
C1
A    2
C2
A    3
C3
A    4
C4
A    5
C5
A    6
C6
A    7
N7
A    8
C8
A    9
C9
A   10
O0
A   11
N11
A   12
C12
A   13
C13
A   14
O14
A   15
N15
A   16
C16
A   17
C17
A   18
C18
A   19
C19
A   20
C20
A   21
C21
A   22
C22
A   23
C23
A   24
N24
A   25
N25
A   26
C26
A   27
C27
A   28
C28
A   29
C29
A   30
O30
A   31
O31
M  END
>  <Id>  (5) 
1K22_MEL_H_999

>  <ChainId>  (5) 
H

>  <AsymId>  (5) 
H

>  <SeqNum>  (5) 
999

>  <Name>  (5) 
[((1R)-2-{(2S)-2-[({4-[AMINO(IMINO)METHYL]BENZYL}AMINO)CARBONYL]AZETIDINYL}-1-CYCLOHEXYL-2-OXOETHYL)AMINO]ACETIC ACID

>  <SystematicName>  (5) 
2-[[(1R)-2-[(2S)-2-[(4-carbamimidoylphenyl)methylcarbamoyl]azetidin-1-yl]-1-cyclohexyl-2-oxo-ethyl]amino]ethanoic acid

>  <Synonyms>  (5) 
MELAGATRAN (ASTRA-ZENECA)

>  <Type>  (5) 
NON-POLYMER

>  <Formula>  (5) 
C22 H31 N5 O4

>  <ObservedFormula>  (5) 
C22 N5 O4

>  <MolecularWeight>  (5) 
429.513

>  <ModifiedDate>  (5) 
2011-06-04

>  <Parent>  (5) 


>  <OneLetterCode>  (5) 


>  <SubcomponentList>  (5) 


>  <AmbiguousFlag>  (5) 
N

>  <InsertionCode>  (5) 


>  <InstanceId>  (5) 
1K22_MEL_H_999

>  <ChemCompId>  (5) 
MEL

>  <PdbId>  (5) 
1K22

>  <ResidueNumber>  (5) 
999

>  <InChI>  (5) 
InChI=1S/C22H31N5O4/c23-20(24)16-8-6-14(7-9-16)12-26-21(30)17-10-11-27(17)22(31)19(25-13-18(28)29)15-4-2-1-3-5-15/h6-9,15,17,19,25H,1-5,10-13H2,(H3,23,24)(H,26,30)(H,28,29)/t17-,19+/m0/s1

>  <InChIKey>  (5) 
DKWNMCUOEDMMIN-PKOBYXMFSA-N

>  <SMILES>  (5) 
c1cc(ccc1CNC(=O)[C@@H]2CCN2C(=O)[C@@H](C3CCCCC3)NCC(=O)O)C(=N)N

>  <MissingHeavyAtoms>  (5) 
0

>  <Model>  (5) 
1

>  <AltIds>  (5) 


>  <pKI>  (5) 
8.84

>  <ChemblID>  (5) 
CHEMBL266349

>  <standardized_canonical_smiles>  (5) 
N=C(N)c1ccc(CNC(=O)[C@@H]2CCN2C(=O)[C@H](NCC(=O)O)C2CCCCC2)cc1

$$$$
1D3D_BZT_B_400
     RDKit          3D

 38 43  0  0  0  0  0  0  0  0999 V2000
  -24.0350  -30.4500   24.2640 C   0  0  0  0  0  0  0  0  0  0  0  0
  -24.3170  -31.5200   23.3160 C   0  0  0  0  0  0  0  0  0  0  0  0
  -23.4150  -31.8990   22.2780 C   0  0  0  0  0  0  0  0  0  0  0  0
  -22.1640  -31.2090   22.1440 C   0  0  0  0  0  0  0  0  0  0  0  0
  -21.8720  -30.1510   23.0670 C   0  0  0  0  0  0  0  0  0  0  0  0
  -22.7970  -29.7740   24.1230 C   0  0  0  0  0  0  0  0  0  0  0  0
  -23.5320  -33.1090   21.0650 S   0  0  0  0  0  0  0  0  0  0  0  0
  -22.0620  -32.7980   20.3770 C   0  0  0  0  0  0  0  0  0  0  0  0
  -21.3850  -31.7250   21.0720 C   0  0  0  0  0  0  0  0  0  0  0  0
  -19.9710  -31.4780   20.7020 C   0  0  0  0  0  0  0  0  0  0  0  0
  -21.5630  -33.5970   19.2000 C   0  0  0  0  0  0  0  0  0  0  0  0
  -20.9090  -33.0210   18.0190 C   0  0  0  0  0  0  0  0  0  0  0  0
  -20.4460  -33.8360   16.9690 C   0  0  0  0  0  0  0  0  0  0  0  0
  -20.5930  -35.2450   17.0130 C   0  0  0  0  0  0  0  0  0  0  0  0
  -21.2520  -35.8150   18.1900 C   0  0  0  0  0  0  0  0  0  0  0  0
  -21.7360  -35.0190   19.2830 C   0  0  0  0  0  0  0  0  0  0  0  0
  -20.0690  -35.9550   15.8820 O   0  0  0  0  0  0  0  0  0  0  0  0
  -20.1990  -37.4370   15.8820 C   0  0  0  0  0  0  0  0  0  0  0  0
  -19.0980  -33.6610   21.9920 C   0  0  0  0  0  0  0  0  0  0  0  0
  -18.8100  -32.5210   21.1830 C   0  0  0  0  0  0  0  0  0  0  0  0
  -17.4520  -32.3350   20.7780 C   0  0  0  0  0  0  0  0  0  0  0  0
  -16.4170  -33.2730   21.1780 C   0  0  0  0  0  0  0  0  0  0  0  0
  -16.7000  -34.4010   21.9880 C   0  0  0  0  0  0  0  0  0  0  0  0
  -18.0690  -34.5420   22.3680 C   0  0  0  0  0  0  0  0  0  0  0  0
  -14.7860  -32.8190   20.5240 Br  0  0  0  0  0  0  0  0  0  0  0  0
  -15.6910  -35.4540   22.4810 C   0  0  0  0  0  0  0  0  0  0  0  0
  -14.2590  -35.6570   25.9730 C   0  0  0  0  0  0  0  0  0  0  0  0
  -14.4620  -34.1290   25.8850 C   0  0  0  0  0  0  0  0  0  0  0  0
  -14.6010  -34.0250   24.3150 C   0  0  0  0  0  0  0  0  0  0  0  0
  -15.2820  -35.3250   23.8710 N   0  0  0  0  0  0  0  0  0  0  0  0
  -14.3020  -36.2570   24.5330 C   0  0  0  0  0  0  0  0  0  0  0  0
  -17.3350  -38.2190   13.5550 C   0  0  0  0  0  0  0  0  0  0  0  0
  -18.1380  -38.5400   14.7330 N   0  0  0  0  0  0  0  0  0  0  0  0
  -17.8940  -39.9830   14.8510 C   0  0  0  0  0  0  0  0  0  0  0  0
  -16.3620  -39.9680   14.9020 C   0  0  0  0  0  0  0  0  0  0  0  0
  -15.9450  -38.7570   14.0180 C   0  0  0  0  0  0  0  0  0  0  0  0
  -19.6010  -38.1560   14.6320 C   0  0  0  0  0  0  0  0  0  0  0  0
  -24.8940  -30.0890   25.2580 O   0  0  0  0  0  0  0  0  0  0  0  0
  2  1  2  0
  6  1  1  0
 38  1  1  0
  3  2  1  0
  4  3  2  0
  7  3  1  0
  5  4  1  0
  9  4  1  0
  6  5  2  0
  8  7  1  0
  9  8  2  0
 11  8  1  0
 10  9  1  0
 20 10  1  0
 12 11  2  0
 16 11  1  0
 13 12  1  0
 14 13  2  0
 15 14  1  0
 17 14  1  0
 16 15  2  0
 18 17  1  0
 37 18  1  0
 20 19  2  0
 24 19  1  0
 21 20  1  0
 22 21  2  0
 23 22  1  0
 25 22  1  0
 24 23  2  0
 26 23  1  0
 30 26  1  0
 28 27  1  0
 31 27  1  0
 29 28  1  0
 30 29  1  0
 31 30  1  0
 33 32  1  0
 36 32  1  0
 34 33  1  0
 37 33  1  0
 35 34  1  0
 36 35  1  0
A    1
C1
A    2
C2
A    3
C3
A    4
C4
A    5
C5
A    6
C6
A    7
S1
A    8
C8
A    9
C9
A   10
C7
A   11
C10
A   12
C12
A   13
C14
A   14
C16
A   15
C18
A   16
C20
A   17
O2
A   18
C24
A   19
C11
A   20
C13
A   21
C15
A   22
C32
A   23
C19
A   24
C21
A   25
BR1
A   26
C31
A   27
C17
A   28
C23
A   29
C26
A   30
N2
A   31
C27
A   32
C22
A   33
N3
A   34
C28
A   35
C29
A   36
C30
A   37
C34
A   38
O1
M  END
>  <Id>  (6) 
1D3D_BZT_B_400

>  <ChainId>  (6) 
B

>  <AsymId>  (6) 
G

>  <SeqNum>  (6) 
400

>  <Name>  (6) 
3-(3-BROMO-4-PYRROLIDIN-1-YLMETHYL-BENZYL)-2-[4-PYRROLIDIN-1-YL-ETHOXY)-PHENYL]-BENZO[B]THIOPHEN-6-OL

>  <SystematicName>  (6) 
3-[[3-bromo-4-(pyrrolidin-1-ylmethyl)phenyl]methyl]-2-[4-(2-pyrrolidin-1-ylethoxy)phenyl]-1-benzothiophen-6-ol

>  <Synonyms>  (6) 


>  <Type>  (6) 
NON-POLYMER

>  <Formula>  (6) 
C32 H35 Br N2 O2 S

>  <ObservedFormula>  (6) 
Br C32 S N2 O2

>  <MolecularWeight>  (6) 
591.601

>  <ModifiedDate>  (6) 
2011-06-04

>  <Parent>  (6) 


>  <OneLetterCode>  (6) 


>  <SubcomponentList>  (6) 


>  <AmbiguousFlag>  (6) 
N

>  <InsertionCode>  (6) 


>  <InstanceId>  (6) 
1D3D_BZT_B_400

>  <ChemCompId>  (6) 
BZT

>  <PdbId>  (6) 
1D3D

>  <ResidueNumber>  (6) 
400

>  <InChI>  (6) 
InChI=1S/C32H35BrN2O2S/c33-30-20-23(5-6-25(30)22-35-15-3-4-16-35)19-29-28-12-9-26(36)21-31(28)38-32(29)24-7-10-27(11-8-24)37-18-17-34-13-1-2-14-34/h5-12,20-21,36H,1-4,13-19,22H2

>  <InChIKey>  (6) 
QVDZMCVSIVITGR-UHFFFAOYSA-N

>  <SMILES>  (6) 
c1cc(ccc1c2c(c3ccc(cc3s2)O)Cc4ccc(c(c4)Br)CN5CCCC5)OCCN6CCCC6

>  <MissingHeavyAtoms>  (6) 
0

>  <Model>  (6) 
1

>  <AltIds>  (6) 


>  <pKI>  (6) 
8.68

>  <ChemblID>  (6) 
CHEMBL275206

>  <standardized_canonical_smiles>  (6) 
Oc1ccc2c(Cc3ccc(CN4CCCC4)c(Br)c3)c(-c3ccc(OCCN4CCCC4)cc3)sc2c1

$$$$
1D3T_BT1_B_400
     RDKit          3D

 39 44  0  0  0  0  0  0  0  0999 V2000
  -24.7230  -31.4530   23.9900 C   0  0  0  0  0  0  0  0  0  0  0  0
  -24.8350  -32.7380   23.1170 C   0  0  0  0  0  0  0  0  0  0  0  0
  -23.7620  -33.1130   22.1740 C   0  0  0  0  0  0  0  0  0  0  0  0
  -22.5480  -32.2820   21.9750 C   0  0  0  0  0  0  0  0  0  0  0  0
  -22.4150  -31.0500   22.7210 C   0  0  0  0  0  0  0  0  0  0  0  0
  -23.4900  -30.5780   23.7830 C   0  0  0  0  0  0  0  0  0  0  0  0
  -23.6370  -34.5220   21.2860 S   0  0  0  0  0  0  0  0  0  0  0  0
  -22.1460  -34.1800   20.5160 C   0  0  0  0  0  0  0  0  0  0  0  0
  -21.6410  -32.9460   21.0690 C   0  0  0  0  0  0  0  0  0  0  0  0
  -20.2840  -32.5420   20.9470 C   0  0  0  0  0  0  0  0  0  0  0  0
  -21.5680  -34.9660   19.3500 C   0  0  0  0  0  0  0  0  0  0  0  0
  -21.6620  -36.4350   19.4150 C   0  0  0  0  0  0  0  0  0  0  0  0
  -20.9700  -37.3640   18.4340 C   0  0  0  0  0  0  0  0  0  0  0  0
  -20.1360  -36.7750   17.2960 C   0  0  0  0  0  0  0  0  0  0  0  0
  -20.0970  -35.2440   17.1600 C   0  0  0  0  0  0  0  0  0  0  0  0
  -20.8290  -34.3770   18.2050 C   0  0  0  0  0  0  0  0  0  0  0  0
  -19.4400  -37.5680   16.3530 O   0  0  0  0  0  0  0  0  0  0  0  0
  -19.1160  -38.9780   16.6680 C   0  0  0  0  0  0  0  0  0  0  0  0
  -17.6260  -32.7780   20.8930 C   0  0  0  0  0  0  0  0  0  0  0  0
  -19.0180  -33.3400   21.2670 C   0  0  0  0  0  0  0  0  0  0  0  0
  -19.0230  -34.6990   22.0020 C   0  0  0  0  0  0  0  0  0  0  0  0
  -17.8500  -35.3760   22.3460 N   0  0  0  0  0  0  0  0  0  0  0  0
  -16.4930  -34.8700   22.1250 C   0  0  0  0  0  0  0  0  0  0  0  0
  -16.3640  -33.5290   21.3700 C   0  0  0  0  0  0  0  0  0  0  0  0
  -15.2930  -35.5380   22.5170 O   0  0  0  0  0  0  0  0  0  0  0  0
  -15.4180  -36.3100   23.7620 C   0  0  0  0  0  0  0  0  0  0  0  0
  -14.7550  -34.0290   26.7560 C   0  0  0  0  0  0  0  0  0  0  0  0
  -13.4160  -33.6890   26.1460 C   0  0  0  0  0  0  0  0  0  0  0  0
  -12.9450  -34.8620   25.2880 C   0  0  0  0  0  0  0  0  0  0  0  0
  -13.8310  -36.0180   25.7150 N   0  0  0  0  0  0  0  0  0  0  0  0
  -15.0620  -35.4860   26.4390 C   0  0  0  0  0  0  0  0  0  0  0  0
  -17.2180  -41.3780   14.2850 C   0  0  0  0  0  0  0  0  0  0  0  0
  -17.6700  -40.0650   14.8790 N   0  0  0  0  0  0  0  0  0  0  0  0
  -16.8780  -38.8640   14.3960 C   0  0  0  0  0  0  0  0  0  0  0  0
  -15.8120  -39.4700   13.4850 C   0  0  0  0  0  0  0  0  0  0  0  0
  -16.0860  -40.9650   13.3360 C   0  0  0  0  0  0  0  0  0  0  0  0
  -14.0850  -36.7280   24.4030 C   0  0  0  0  0  0  0  0  0  0  0  0
  -19.0460  -39.8880   15.4280 C   0  0  0  0  0  0  0  0  0  0  0  0
  -20.1430  -31.3850   20.5350 O   0  0  0  0  0  0  0  0  0  0  0  0
  2  1  2  0
  6  1  1  0
  3  2  1  0
  4  3  2  0
  7  3  1  0
  5  4  1  0
  9  4  1  0
  6  5  2  0
  8  7  1  0
  9  8  2  0
 11  8  1  0
 10  9  1  0
 20 10  1  0
 39 10  2  0
 12 11  2  0
 16 11  1  0
 13 12  1  0
 14 13  2  0
 15 14  1  0
 17 14  1  0
 16 15  2  0
 18 17  1  0
 38 18  1  0
 20 19  2  0
 24 19  1  0
 21 20  1  0
 22 21  2  0
 23 22  1  0
 24 23  2  0
 25 23  1  0
 26 25  1  0
 37 26  1  0
 28 27  1  0
 31 27  1  0
 29 28  1  0
 30 29  1  0
 31 30  1  0
 37 30  1  0
 33 32  1  0
 36 32  1  0
 34 33  1  0
 38 33  1  0
 35 34  1  0
 36 35  1  0
A    1
C1
A    2
C2
A    3
C3
A    4
C4
A    5
C5
A    6
C6
A    7
S1
A    8
C8
A    9
C9
A   10
C7
A   11
C10
A   12
C12
A   13
C14
A   14
C16
A   15
C18
A   16
C20
A   17
O2
A   18
C24
A   19
C11
A   20
C13
A   21
C15
A   22
N1
A   23
C19
A   24
C21
A   25
O3
A   26
C25
A   27
C17
A   28
C23
A   29
C26
A   30
N2
A   31
C27
A   32
C22
A   33
N3
A   34
C28
A   35
C29
A   36
C30
A   37
C33
A   38
C34
A   39
O1
M  END
>  <Id>  (7) 
1D3T_BT1_B_400

>  <ChainId>  (7) 
B

>  <AsymId>  (7) 
G

>  <SeqNum>  (7) 
400

>  <Name>  (7) 
{2-[4-(2-PYRROLIDIN-1-YL-ETHOXY)-PHENYL]-BENZO[B]THIOPHEN-3-YL}-[4-(2-PYRROLIDIN-1-YL-ETHOXY)-PHENYL]-METHANONE

>  <SystematicName>  (7) 
[2-[4-(2-pyrrolidin-1-ylethoxy)phenyl]-1-benzothiophen-3-yl]-[6-(2-pyrrolidin-1-ylethoxy)pyridin-3-yl]methanone

>  <Synonyms>  (7) 


>  <Type>  (7) 
NON-POLYMER

>  <Formula>  (7) 
C32 H35 N3 O3 S

>  <ObservedFormula>  (7) 
C32 S N3 O3

>  <MolecularWeight>  (7) 
541.704

>  <ModifiedDate>  (7) 
2011-06-04

>  <Parent>  (7) 


>  <OneLetterCode>  (7) 


>  <SubcomponentList>  (7) 


>  <AmbiguousFlag>  (7) 
N

>  <InsertionCode>  (7) 


>  <InstanceId>  (7) 
1D3T_BT1_B_400

>  <ChemCompId>  (7) 
BT1

>  <PdbId>  (7) 
1D3T

>  <ResidueNumber>  (7) 
400

>  <InChI>  (7) 
InChI=1S/C32H35N3O3S/c36-31(25-11-14-29(33-23-25)38-22-20-35-17-5-6-18-35)30-27-7-1-2-8-28(27)39-32(30)24-9-12-26(13-10-24)37-21-19-34-15-3-4-16-34/h1-2,7-14,23H,3-6,15-22H2

>  <InChIKey>  (7) 
ZWXFJUPNUWRODU-UHFFFAOYSA-N

>  <SMILES>  (7) 
c1ccc2c(c1)c(c(s2)c3ccc(cc3)OCCN4CCCC4)C(=O)c5ccc(nc5)OCCN6CCCC6

>  <MissingHeavyAtoms>  (7) 
0

>  <Model>  (7) 
1

>  <AltIds>  (7) 


>  <pKI>  (7) 
6.43

>  <ChemblID>  (7) 
CHEMBL82285

>  <standardized_canonical_smiles>  (7) 
O=C(c1ccc(OCCN2CCCC2)nc1)c1c(-c2ccc(OCCN3CCCC3)cc2)sc2ccccc12

$$$$
4AX9_N5N_H_1246
     RDKit          3D

 39 42  0  0  0  0  0  0  0  0999 V2000
   17.7370  -12.9750   21.1270 N   0  0  0  0  0  0  0  0  0  0  0  0
   18.6830  -13.7220   20.3520 C   0  0  0  0  0  0  0  0  0  0  0  0
   16.8790  -13.6150   22.0190 C   0  0  0  0  0  0  0  0  0  0  0  0
   17.6590  -11.5820   20.8440 C   0  0  0  0  0  0  0  0  0  0  0  0
   20.0700  -13.1470   20.0650 C   0  0  0  0  0  0  0  0  0  0  0  0
   19.9200  -14.3280   20.9770 C   0  0  0  0  0  0  0  0  0  0  0  0
   16.9460  -15.1600   22.1650 C   0  0  0  0  0  0  0  0  0  0  0  0
   16.0580  -12.9750   22.6910 O   0  0  0  0  0  0  0  0  0  0  0  0
   16.6660  -11.6270   19.6790 C   0  0  0  0  0  0  0  0  0  0  0  0
   16.4850  -15.6460   23.4110 N   0  0  0  0  0  0  0  0  0  0  0  0
   15.9770  -15.6560   21.0550 C   0  0  0  0  0  0  0  0  0  0  0  0
   16.5900  -10.5570   18.8560 O   0  0  0  0  0  0  0  0  0  0  0  0
   15.9200  -12.5530   19.3650 O   0  0  0  0  0  0  0  0  0  0  0  0
   17.4120  -16.7460   24.1380 S   0  0  0  0  0  0  0  0  0  0  0  0
   14.4840  -15.3310   21.3120 C   0  0  0  0  0  0  0  0  0  0  0  0
   18.7430  -15.8260   24.5750 C   0  0  0  0  0  0  0  0  0  0  0  0
   16.6880  -17.0720   25.2910 O   0  0  0  0  0  0  0  0  0  0  0  0
   17.6620  -17.6840   23.1350 O   0  0  0  0  0  0  0  0  0  0  0  0
   13.8870  -14.2270   20.7230 N   0  0  0  0  0  0  0  0  0  0  0  0
   13.7860  -16.0850   22.0300 O   0  0  0  0  0  0  0  0  0  0  0  0
   20.0400  -16.0170   24.1530 C   0  0  0  0  0  0  0  0  0  0  0  0
   18.4750  -14.7500   25.4650 C   0  0  0  0  0  0  0  0  0  0  0  0
   12.4990  -13.8980   20.8990 C   0  0  0  0  0  0  0  0  0  0  0  0
   21.0570  -15.1400   24.6180 C   0  0  0  0  0  0  0  0  0  0  0  0
   19.4330  -13.8990   25.9250 C   0  0  0  0  0  0  0  0  0  0  0  0
   12.1900  -12.4500   21.3330 C   0  0  0  0  0  0  0  0  0  0  0  0
   20.7480  -14.0800   25.5100 C   0  0  0  0  0  0  0  0  0  0  0  0
   22.3990  -15.2940   24.2120 C   0  0  0  0  0  0  0  0  0  0  0  0
   12.5760  -12.3160   22.8090 C   0  0  0  0  0  0  0  0  0  0  0  0
   12.9710  -11.4340   20.5020 C   0  0  0  0  0  0  0  0  0  0  0  0
   21.7610  -13.2020   25.9700 C   0  0  0  0  0  0  0  0  0  0  0  0
   23.3630  -14.4350   24.6580 C   0  0  0  0  0  0  0  0  0  0  0  0
   12.4380  -10.9660   23.3380 N   0  0  0  0  0  0  0  0  0  0  0  0
   12.6880  -10.0320   21.0300 C   0  0  0  0  0  0  0  0  0  0  0  0
   23.0470  -13.3790   25.5470 C   0  0  0  0  0  0  0  0  0  0  0  0
   13.0380   -9.9160   22.5120 C   0  0  0  0  0  0  0  0  0  0  0  0
   11.2250  -10.7710   24.1160 C   0  0  0  0  0  0  0  0  0  0  0  0
   10.4600  -11.9530   24.3330 N   0  0  0  0  0  0  0  0  0  0  0  0
   10.8860   -9.6050   24.5720 N   0  0  0  0  0  0  0  0  0  0  0  0
  2  1  1  0
  3  1  1  0
  4  1  1  0
  5  2  1  0
  6  2  1  0
  7  3  1  0
  8  3  2  0
  9  4  1  0
  6  5  1  0
 10  7  1  0
 11  7  1  0
 12  9  1  0
 13  9  2  0
 14 10  1  0
 15 11  1  0
 16 14  1  0
 17 14  2  0
 18 14  2  0
 19 15  1  0
 20 15  2  0
 21 16  2  0
 22 16  1  0
 23 19  1  0
 24 21  1  0
 25 22  2  0
 26 23  1  0
 27 24  2  0
 28 24  1  0
 27 25  1  0
 29 26  1  0
 30 26  1  0
 31 27  1  0
 32 28  2  0
 33 29  1  0
 34 30  1  0
 35 31  2  0
 35 32  1  0
 36 33  1  0
 37 33  1  0
 36 34  1  0
 38 37  1  0
 39 37  2  0
A    1
N1
A    2
C2
A    3
C3
A    4
C4
A    5
C5
A    6
C6
A    7
C7
A    8
O8
A    9
C9
A   10
N10
A   11
C11
A   12
O12
A   13
O13
A   14
S14
A   15
C15
A   16
C16
A   17
O17
A   18
O18
A   19
N19
A   20
O20
A   21
C21
A   22
C22
A   23
C23
A   24
C24
A   25
C25
A   26
C26
A   27
C27
A   28
C28
A   29
C29
A   30
C30
A   31
C31
A   32
C32
A   33
N33
A   34
C34
A   35
C35
A   36
C36
A   37
C37
A   38
N38
A   39
N39
M  END
>  <Id>  (8) 
4AX9_N5N_H_1246

>  <ChainId>  (8) 
H

>  <AsymId>  (8) 
F

>  <SeqNum>  (8) 
1246

>  <Name>  (8) 
2-[[(2S)-4-[[(3S)-1-carbamimidoylpiperidin-3-yl]methylamino]-2-(naphthalen-2-ylsulfonylamino)-4-oxidanylidene-butanoyl]-cyclopropyl-amino]ethanoic acid

>  <SystematicName>  (8) 
2-[[(2S)-4-[[(3S)-1-carbamimidoylpiperidin-3-yl]methylamino]-2-(naphthalen-2-ylsulfonylamino)-4-oxidanylidene-butanoyl]-cyclopropyl-amino]ethanoic acid

>  <Synonyms>  (8) 
NAPSAGATRAN; Ro-46-6240

>  <Type>  (8) 
non-polymer

>  <Formula>  (8) 
C26 H34 N6 O6 S

>  <ObservedFormula>  (8) 
C26 S N6 O6

>  <MolecularWeight>  (8) 
558.65

>  <ModifiedDate>  (8) 
2014-05-09

>  <Parent>  (8) 


>  <OneLetterCode>  (8) 


>  <SubcomponentList>  (8) 


>  <AmbiguousFlag>  (8) 
N

>  <InsertionCode>  (8) 


>  <InstanceId>  (8) 
4AX9_N5N_H_1246

>  <ChemCompId>  (8) 
N5N

>  <PdbId>  (8) 
4AX9

>  <ResidueNumber>  (8) 
1246

>  <InChI>  (8) 
InChI=1S/C26H34N6O6S/c27-26(28)31-11-3-4-17(15-31)14-29-23(33)13-22(25(36)32(16-24(34)35)20-8-9-20)30-39(37,38)21-10-7-18-5-1-2-6-19(18)12-21/h1-2,5-7,10,12,17,20,22,30H,3-4,8-9,11,13-16H2,(H3,27,28)(H,29,33)(H,34,35)/t17-,22-/m0/s1

>  <InChIKey>  (8) 
BYDKEYCXCIVOOV-JTSKRJEESA-N

>  <SMILES>  (8) 
[H]/N=C(/N)\N1CCC[C@H](C1)CNC(=O)C[C@@H](C(=O)N(CC(=O)O)C2CC2)NS(=O)(=O)c3ccc4ccccc4c3

>  <MissingHeavyAtoms>  (8) 
0

>  <Model>  (8) 
1

>  <AltIds>  (8) 


>  <pKI>  (8) 
9.54

>  <ChemblID>  (8) 
CHEMBL325166

>  <standardized_canonical_smiles>  (8) 
N=C(N)N1CCC[C@@H](CNC(=O)C[C@H](NS(=O)(=O)c2ccc3ccccc3c2)C(=O)N(CC(=O)O)C2CC2)C1

$$$$
1DOJ_1Z0_A_401
     RDKit          3D

 42 45  0  0  0  0  0  0  0  0999 V2000
   11.9440   24.2430   -3.2240 N   0  0  0  0  0  0  0  0  0  0  0  0
   11.9810   26.3700   -9.2310 C   0  0  0  0  0  0  0  0  0  0  0  0
    8.8440   26.2860   -0.0110 C   0  0  0  0  0  0  0  0  0  0  0  0
   14.7260   29.6280   -8.6880 C   0  0  0  0  0  0  0  0  0  0  0  0
    5.9420   29.0480    0.7230 O   0  0  0  0  0  0  0  0  0  0  0  0
   11.2510   23.3080   -1.0710 C   0  0  0  0  0  0  0  0  0  0  0  0
   12.1150   28.6570   -4.6980 C   0  0  0  0  0  0  0  0  0  0  0  0
   11.4600   19.7380   -6.1480 N   0  0  0  0  0  0  0  0  0  0  0  0
   13.3790   29.8780   -8.8450 C   0  0  0  0  0  0  0  0  0  0  0  0
   10.0970   25.2250   -4.0440 O   0  0  0  0  0  0  0  0  0  0  0  0
    9.8060   25.3970   -8.5820 N   0  0  0  0  0  0  0  0  0  0  0  0
    7.8240   27.1730    0.2940 C   0  0  0  0  0  0  0  0  0  0  0  0
   11.0870   25.6900   -0.1830 N   0  0  0  0  0  0  0  0  0  0  0  0
   12.2130   27.5460   -3.7080 C   0  0  0  0  0  0  0  0  0  0  0  0
   10.2150   26.6720    0.1570 C   0  0  0  0  0  0  0  0  0  0  0  0
   11.6410   26.6880   -5.8340 N   0  0  0  0  0  0  0  0  0  0  0  0
    8.7900   24.6430   -0.6100 S   0  0  0  0  0  0  0  0  0  0  0  0
    7.3430   30.2350    1.9090 O   0  0  0  0  0  0  0  0  0  0  0  0
   10.5460   22.2290   -0.4730 O   0  0  0  0  0  0  0  0  0  0  0  0
   12.4810   28.8260   -9.0200 C   0  0  0  0  0  0  0  0  0  0  0  0
   15.1900   28.3250   -8.7050 C   0  0  0  0  0  0  0  0  0  0  0  0
   12.9500   27.5190   -9.0370 C   0  0  0  0  0  0  0  0  0  0  0  0
   14.3040   27.2650   -8.8800 C   0  0  0  0  0  0  0  0  0  0  0  0
    7.0990   29.2950    1.1230 C   0  0  0  0  0  0  0  0  0  0  0  0
   11.8400   24.6260   -6.7230 O   0  0  0  0  0  0  0  0  0  0  0  0
   11.3150   28.1250   -5.8470 C   0  0  0  0  0  0  0  0  0  0  0  0
   10.4900   27.9550    0.6300 C   0  0  0  0  0  0  0  0  0  0  0  0
   11.3190   25.1920   -3.9100 C   0  0  0  0  0  0  0  0  0  0  0  0
   11.2070   23.1720   -2.5740 C   0  0  0  0  0  0  0  0  0  0  0  0
   11.3090   21.4110   -4.3760 C   0  0  0  0  0  0  0  0  0  0  0  0
   11.4970   25.8040   -6.8370 C   0  0  0  0  0  0  0  0  0  0  0  0
   12.1300   20.2820   -4.9720 C   0  0  0  0  0  0  0  0  0  0  0  0
   12.7890   17.8600   -6.2820 N   0  0  0  0  0  0  0  0  0  0  0  0
    8.1250   28.4420    0.7640 C   0  0  0  0  0  0  0  0  0  0  0  0
   11.7870   18.5980   -6.7450 C   0  0  0  0  0  0  0  0  0  0  0  0
   10.9020   26.3160   -8.1460 C   0  0  0  0  0  0  0  0  0  0  0  0
   11.7770   21.8170   -2.9930 C   0  0  0  0  0  0  0  0  0  0  0  0
   11.1010   18.1940   -7.8010 N   0  0  0  0  0  0  0  0  0  0  0  0
    9.2080   25.9000   -9.8540 C   0  0  0  0  0  0  0  0  0  0  0  0
   12.1980   26.2640   -4.5430 C   0  0  0  0  0  0  0  0  0  0  0  0
   10.4860   24.5400   -0.6150 C   0  0  0  0  0  0  0  0  0  0  0  0
    9.4520   28.8430    0.9360 C   0  0  0  0  0  0  0  0  0  0  0  0
 22 23  1  0
 16 40  1  0
 20  9  1  0
 24 18  2  0
 31 25  2  0
  9  4  2  0
 15  3  1  0
 29  6  1  0
 35 33  2  0
 28 10  2  0
 22 20  2  0
  2 22  1  0
 29 37  1  0
 31 16  1  0
 13 15  1  0
  7 26  1  0
 39 11  1  0
  1 29  1  0
 16 26  1  0
 34 24  1  0
 24  5  1  0
 41  6  1  0
  8 35  1  0
 32  8  1  0
 17 41  1  0
  3 12  2  0
 37 30  1  0
 34 42  2  0
 36  2  1  0
 40 28  1  0
 19  6  2  0
 30 32  1  0
 17  3  1  0
 36 31  1  0
 21 23  2  0
 11 36  1  0
 35 38  1  0
 13 41  2  0
 12 34  1  0
 40 14  1  0
  4 21  1  0
 28  1  1  0
 42 27  1  0
 14  7  1  0
 15 27  2  0
A    1
N2
A    2
C'
A    3
C62
A    4
C4'
A    5
O2
A    6
C4
A    7
CG
A    8
NE
A    9
C3'
A   10
O1
A   11
N
A   12
C63
A   13
N5
A   14
CB
A   15
C61
A   16
N1
A   17
S5
A   18
O11
A   19
O3
A   20
C2'
A   21
C5'
A   22
C1'
A   23
C6'
A   24
C11
A   25
O
A   26
CD
A   27
C66
A   28
C2
A   29
CA1
A   30
CG1
A   31
C
A   32
CD1
A   33
NH1
A   34
C64
A   35
CZ
A   36
C3
A   37
CB1
A   38
NH2
A   39
C1
A   40
CA
A   41
C5
A   42
C65
M  END
>  <InstanceId>  (9) 
1DOJ_1Z0

>  <ChemCompId>  (9) 
1Z0

>  <PdbId>  (9) 
1DOJ

>  <ChainId>  (9) 
A

>  <ResidueNumber>  (9) 
401

>  <InsertionCode>  (9) 
null

>  <Model>  (9) 
1

>  <AltIds>  (9) 


>  <MissingHeavyAtoms>  (9) 
0

>  <ObservedFormula>  (9) 
C29 N7 O5 S

>  <AsymId>  (9) 
C

>  <SeqNum>  (9) 
401

>  <Name>  (9) 
N-methyl-D-phenylalanyl-N-{(1S)-4-carbamimidamido-1-[(6-carboxy-1,3-benzothiazol-2-yl)carbonyl]butyl}-L-prolinamide

>  <SystematicName>  (9) 
2-[(2S)-5-carbamimidamido-2-[[(2S)-1-[(2R)-2-(methylamino)-3-phenyl-propanoyl]pyrrolidin-2-yl]carbonylamino]pentanoyl]-1,3-benzothiazole-6-carboxylic acid

>  <Synonyms>  (9) 
RWJ-51438

>  <Type>  (9) 
peptide-like

>  <Formula>  (9) 
C29 H35 N7 O5 S

>  <MolecularWeight>  (9) 
593.697

>  <ModifiedDate>  (9) 
2012-01-05

>  <Parent>  (9) 


>  <OneLetterCode>  (9) 


>  <SubcomponentList>  (9) 
ZAE PRO AR2

>  <AmbiguousFlag>  (9) 
N

>  <InChI>  (9) 
InChI=1S/C29H35N7O5S/c1-32-21(15-17-7-3-2-4-8-17)27(39)36-14-6-10-22(36)25(38)34-20(9-5-13-33-29(30)31)24(37)26-35-19-12-11-18(28(40)41)16-23(19)42-26/h2-4,7-8,11-12,16,20-22,32H,5-6,9-10,13-15H2,1H3,(H,34,38)(H,40,41)(H4,30,31,33)/t20-,21+,22-/m0/s1

>  <InChIKey>  (9) 
XNPQCHOSZVJBHP-BDTNDASRSA-N

>  <SMILES>  (9) 
[H]/N=C(\N)/NCCC[C@@H](C(=O)c1nc2ccc(cc2s1)C(=O)O)NC(=O)[C@@H]3CCCN3C(=O)[C@@H](Cc4ccccc4)NC

>  <pKI>  (9) 
8.7

>  <ChemblID>  (9) 
CHEMBL403929

>  <standardized_canonical_smiles>  (9) 
CN[C@H](Cc1ccccc1)C(=O)N1CCC[C@H]1C(=O)N[C@@H](CCCNC(=N)N)C(=O)c1nc2ccc(C(=O)O)cc2s1

$$$$
1TOM_MIN_H_1
     RDKit          3D

 28 30  0  0  0  0  0  0  0  0999 V2000
   16.6180  -16.8730   23.8320 N   0  0  0  0  0  0  0  0  0  0  0  0
   17.9320  -16.2260   23.7760 C   0  0  0  0  0  0  0  0  0  0  0  0
   17.8220  -14.8100   23.2150 C   0  0  0  0  0  0  0  0  0  0  0  0
   16.9480  -14.0710   23.6920 O   0  0  0  0  0  0  0  0  0  0  0  0
   18.5320  -16.1970   25.2170 C   0  0  0  0  0  0  0  0  0  0  0  0
   19.8880  -15.5410   25.3810 C   0  0  0  0  0  0  0  0  0  0  0  0
   21.0020  -16.1550   24.8590 C   0  0  0  0  0  0  0  0  0  0  0  0
   19.9680  -14.3310   26.0350 C   0  0  0  0  0  0  0  0  0  0  0  0
   22.2210  -15.5290   24.9600 C   0  0  0  0  0  0  0  0  0  0  0  0
   21.1840  -13.7160   26.1340 C   0  0  0  0  0  0  0  0  0  0  0  0
   22.3090  -14.3140   25.6040 C   0  0  0  0  0  0  0  0  0  0  0  0
   15.8190  -17.0230   22.6010 C   0  0  0  0  0  0  0  0  0  0  0  0
   18.6620  -14.3740   22.2720 N   0  0  0  0  0  0  0  0  0  0  0  0
   18.5150  -13.0970   21.5690 C   0  0  0  0  0  0  0  0  0  0  0  0
   17.1170  -13.0170   20.9440 C   0  0  0  0  0  0  0  0  0  0  0  0
   16.7290  -13.9670   20.2610 O   0  0  0  0  0  0  0  0  0  0  0  0
   19.5800  -13.0850   20.5050 C   0  0  0  0  0  0  0  0  0  0  0  0
   20.5550  -14.1330   20.9450 C   0  0  0  0  0  0  0  0  0  0  0  0
   19.7010  -15.1760   21.6260 C   0  0  0  0  0  0  0  0  0  0  0  0
   16.3250  -11.9530   21.1710 N   0  0  0  0  0  0  0  0  0  0  0  0
   14.9980  -11.8090   20.5710 C   0  0  0  0  0  0  0  0  0  0  0  0
   13.9200  -11.8380   21.5900 C   0  0  0  0  0  0  0  0  0  0  0  0
   12.6590  -11.3000   20.9420 C   0  0  0  0  0  0  0  0  0  0  0  0
   11.5480  -11.3550   21.9740 C   0  0  0  0  0  0  0  0  0  0  0  0
   11.3220  -12.7910   22.5040 C   0  0  0  0  0  0  0  0  0  0  0  0
   12.5960  -13.2860   23.1240 C   0  0  0  0  0  0  0  0  0  0  0  0
   13.7450  -13.2510   22.1460 C   0  0  0  0  0  0  0  0  0  0  0  0
   10.3160  -12.8040   23.5250 N   0  0  0  0  0  0  0  0  0  0  0  0
  2  1  1  0
 12  1  1  0
  3  2  1  0
  5  2  1  0
  4  3  2  0
 13  3  1  0
  6  5  1  0
  7  6  2  0
  8  6  1  0
  9  7  1  0
 10  8  2  0
 11  9  2  0
 11 10  1  0
 14 13  1  0
 19 13  1  0
 15 14  1  0
 17 14  1  0
 16 15  2  0
 20 15  1  0
 18 17  1  0
 19 18  1  0
 21 20  1  0
 22 21  1  0
 23 22  1  0
 27 22  1  0
 24 23  1  0
 25 24  1  0
 26 25  1  0
 28 25  1  0
 27 26  1  0
A    1
N13
A    2
C15
A    3
C13
A    4
O13
A    5
C16
A    6
C17
A    7
C18
A    8
C22
A    9
C19
A   10
C21
A   11
C20
A   12
C14
A   13
N9
A   14
C9
A   15
C8
A   16
O8
A   17
C10
A   18
C11
A   19
C12
A   20
N7
A   21
C7
A   22
C4
A   23
C5
A   24
C6
A   25
C1
A   26
C2
A   27
C3
A   28
N1
M  END
>  <Id>  (10) 
1TOM_MIN_H_1

>  <ChainId>  (10) 
H

>  <AsymId>  (10) 
D

>  <SeqNum>  (10) 
1

>  <Name>  (10) 
METHYL-PHE-PRO-AMINO-CYCLOHEXYLGLYCINE

>  <SystematicName>  (10) 
(2S)-N-[(4-azanylcyclohexyl)methyl]-1-[(2R)-2-(methylamino)-3-phenyl-propanoyl]pyrrolidine-2-carboxamide

>  <Synonyms>  (10) 


>  <Type>  (10) 
peptide-like

>  <Formula>  (10) 
C22 H34 N4 O2

>  <ObservedFormula>  (10) 
C22 N4 O2

>  <MolecularWeight>  (10) 
386.531

>  <ModifiedDate>  (10) 
2011-06-04

>  <Parent>  (10) 


>  <OneLetterCode>  (10) 


>  <SubcomponentList>  (10) 
ZAE PRO CHN

>  <AmbiguousFlag>  (10) 
N

>  <InsertionCode>  (10) 


>  <InstanceId>  (10) 
1TOM_MIN_H_1

>  <ChemCompId>  (10) 
MIN

>  <PdbId>  (10) 
1TOM

>  <ResidueNumber>  (10) 
1

>  <InChI>  (10) 
InChI=1S/C22H34N4O2/c1-24-19(14-16-6-3-2-4-7-16)22(28)26-13-5-8-20(26)21(27)25-15-17-9-11-18(23)12-10-17/h2-4,6-7,17-20,24H,5,8-15,23H2,1H3,(H,25,27)/t17-,18-,19-,20+/m1/s1

>  <InChIKey>  (10) 
MDSVGJAUFNXYRR-WTGUMLROSA-N

>  <SMILES>  (10) 
CN[C@H](Cc1ccccc1)C(=O)N2CCC[C@H]2C(=O)NCC3CCC(CC3)N

>  <MissingHeavyAtoms>  (10) 
0

>  <Model>  (10) 
1

>  <AltIds>  (10) 


>  <pKI>  (10) 
8.3

>  <ChemblID>  (10) 
CHEMBL3084745

>  <standardized_canonical_smiles>  (10) 
CN[C@H](Cc1ccccc1)C(=O)N1CCCC1C(=O)NC[C@H]1CC[C@H](N)CC1

$$$$
1TA6_177_A_401
     RDKit          3D

 33 35  0  0  0  0  0  0  0  0999 V2000
   16.5390  -16.7740   23.3160 N   0  0  0  0  0  0  0  0  0  0  0  0
   17.6790  -15.8310   23.1550 C   0  0  0  0  0  0  0  0  0  0  0  0
   18.3540  -15.5110   24.5110 C   0  0  0  0  0  0  0  0  0  0  0  0
   19.6950  -14.8060   24.2940 C   0  0  0  0  0  0  0  0  0  0  0  0
   20.3820  -14.4750   25.5970 C   0  0  0  0  0  0  0  0  0  0  0  0
   20.5600  -15.7250   26.4480 C   0  0  0  0  0  0  0  0  0  0  0  0
   19.2390  -16.4650   26.6590 C   0  0  0  0  0  0  0  0  0  0  0  0
   18.6080  -16.7810   25.3240 C   0  0  0  0  0  0  0  0  0  0  0  0
   17.1190  -14.5420   22.5670 C   0  0  0  0  0  0  0  0  0  0  0  0
   16.0610  -14.0490   23.0210 O   0  0  0  0  0  0  0  0  0  0  0  0
   17.7960  -13.9860   21.5400 N   0  0  0  0  0  0  0  0  0  0  0  0
   17.3940  -12.7490   20.8620 C   0  0  0  0  0  0  0  0  0  0  0  0
   15.8980  -12.7300   20.5530 C   0  0  0  0  0  0  0  0  0  0  0  0
   15.3430  -13.7480   20.1180 O   0  0  0  0  0  0  0  0  0  0  0  0
   18.2040  -12.8090   19.5720 C   0  0  0  0  0  0  0  0  0  0  0  0
   19.4760  -13.4040   20.0290 C   0  0  0  0  0  0  0  0  0  0  0  0
   18.9950  -14.5580   20.8960 C   0  0  0  0  0  0  0  0  0  0  0  0
   15.2450  -11.6060   20.8350 N   0  0  0  0  0  0  0  0  0  0  0  0
   13.8170  -11.4050   20.6020 C   0  0  0  0  0  0  0  0  0  0  0  0
   13.0030  -11.4100   21.8720 C   0  0  0  0  0  0  0  0  0  0  0  0
   12.1660  -12.4880   22.1520 C   0  0  0  0  0  0  0  0  0  0  0  0
   11.2890  -12.4260   23.2580 C   0  0  0  0  0  0  0  0  0  0  0  0
   11.2650  -11.3160   24.0760 C   0  0  0  0  0  0  0  0  0  0  0  0
   12.1010  -10.2150   23.8200 C   0  0  0  0  0  0  0  0  0  0  0  0
   12.9630  -10.2770   22.7080 C   0  0  0  0  0  0  0  0  0  0  0  0
   12.0610   -8.8120   24.7990 Cl  0  0  0  0  0  0  0  0  0  0  0  0
   12.4020  -13.6620   21.4670 O   0  0  0  0  0  0  0  0  0  0  0  0
   12.9340  -14.7070   22.2930 C   0  0  0  0  0  0  0  0  0  0  0  0
   12.7020  -16.0660   21.6720 C   0  0  0  0  0  0  0  0  0  0  0  0
   12.6950  -17.0820   22.3680 O   0  0  0  0  0  0  0  0  0  0  0  0
   12.5300  -16.0900   20.3550 N   0  0  0  0  0  0  0  0  0  0  0  0
   12.2590  -17.3040   19.5830 C   0  0  0  0  0  0  0  0  0  0  0  0
   10.8600  -17.8440   19.8860 C   0  0  0  0  0  0  0  0  0  0  0  0
  2  1  1  0
  3  2  1  0
  9  2  1  0
  4  3  1  0
  8  3  1  0
  5  4  1  0
  6  5  1  0
  7  6  1  0
  8  7  1  0
 10  9  2  0
 11  9  1  0
 12 11  1  0
 17 11  1  0
 13 12  1  0
 15 12  1  0
 14 13  2  0
 18 13  1  0
 16 15  1  0
 17 16  1  0
 19 18  1  0
 20 19  1  0
 21 20  2  0
 25 20  1  0
 22 21  1  0
 27 21  1  0
 23 22  2  0
 24 23  1  0
 25 24  2  0
 26 24  1  0
 28 27  1  0
 29 28  1  0
 30 29  2  0
 31 29  1  0
 32 31  1  0
 33 32  1  0
A    1
N0
A    2
CA0
A    3
CB0
A    4
CG1
A    5
CD1
A    6
CE0
A    7
CD2
A    8
CG2
A    9
C0
A   10
O0
A   11
N
A   12
CA
A   13
C
A   14
O
A   15
CB
A   16
CG
A   17
CD
A   18
N'
A   19
CA'
A   20
CB'
A   21
CG'
A   22
CD'
A   23
CE'
A   24
CDB
A   25
CGB
A   26
CL
A   27
OL
A   28
CF
A   29
CH
A   30
OH
A   31
N2
A   32
CM
A   33
CN
M  END
>  <Id>  (11) 
1TA6_177_A_401

>  <ChainId>  (11) 
A

>  <AsymId>  (11) 
C

>  <SeqNum>  (11) 
401

>  <Name>  (11) 
1-[2-AMINO-2-CYCLOHEXYL-ACETYL]-PYRROLIDINE-3-CARBOXYLIC ACID 5-CHLORO-2-(2-ETHYLCARBAMOYL-ETHOXY)-BENZYLAMIDE

>  <SystematicName>  (11) 
(2S)-1-[(2R)-2-azanyl-2-cyclohexyl-ethanoyl]-N-[[5-chloro-2-[2-(ethylamino)-2-oxo-ethoxy]phenyl]methyl]pyrrolidine-2-carboxamide

>  <Synonyms>  (11) 


>  <Type>  (11) 
peptide-like

>  <Formula>  (11) 
C24 H35 Cl N4 O4

>  <ObservedFormula>  (11) 
C24 Cl N4 O4

>  <MolecularWeight>  (11) 
479.012

>  <ModifiedDate>  (11) 
2011-06-04

>  <Parent>  (11) 


>  <OneLetterCode>  (11) 


>  <SubcomponentList>  (11) 
PG9 PRO 01X NEH

>  <AmbiguousFlag>  (11) 
N

>  <InsertionCode>  (11) 


>  <InstanceId>  (11) 
1TA6_177_A_401

>  <ChemCompId>  (11) 
177

>  <PdbId>  (11) 
1TA6

>  <ResidueNumber>  (11) 
401

>  <InChI>  (11) 
InChI=1S/C24H35ClN4O4/c1-2-27-21(30)15-33-20-11-10-18(25)13-17(20)14-28-23(31)19-9-6-12-29(19)24(32)22(26)16-7-4-3-5-8-16/h10-11,13,16,19,22H,2-9,12,14-15,26H2,1H3,(H,27,30)(H,28,31)/t19-,22+/m0/s1

>  <InChIKey>  (11) 
BMHVHOJXEQTIEA-SIKLNZKXSA-N

>  <SMILES>  (11) 
CCNC(=O)COc1ccc(cc1CNC(=O)[C@@H]2CCCN2C(=O)[C@@H](C3CCCCC3)N)Cl

>  <MissingHeavyAtoms>  (11) 
0

>  <Model>  (11) 
1

>  <AltIds>  (11) 


>  <pKI>  (11) 
9.13

>  <ChemblID>  (11) 
CHEMBL42039

>  <standardized_canonical_smiles>  (11) 
CCNC(=O)COc1ccc(Cl)cc1CNC(=O)[C@@H]1CCCN1C(=O)[C@H](N)C1CCCCC1

$$$$
4AYY_9MX_B_1258
     RDKit          3D

 41 44  0  0  0  0  0  0  0  0999 V2000
   29.5640   17.7300   23.4910 C   0  0  0  0  0  0  0  0  0  0  0  0
   30.9530   18.3840   23.6240 C   0  0  0  0  0  0  0  0  0  0  0  0
   31.3890   18.3680   25.0910 C   0  0  0  0  0  0  0  0  0  0  0  0
   31.9960   17.6880   22.7530 C   0  0  0  0  0  0  0  0  0  0  0  0
   32.6740   18.9930   25.3520 N   0  0  0  0  0  0  0  0  0  0  0  0
   33.4130   18.0870   23.1160 C   0  0  0  0  0  0  0  0  0  0  0  0
   33.4670   19.2010   24.1530 C   0  0  0  0  0  0  0  0  0  0  0  0
   32.5850   20.0970   26.3130 C   0  0  0  0  0  0  0  0  0  0  0  0
   31.2670   20.3120   26.8370 N   0  0  0  0  0  0  0  0  0  0  0  0
   33.6300   20.8030   26.6660 N   0  0  0  0  0  0  0  0  0  0  0  0
   29.4700   13.4370   26.6140 N   0  0  0  0  0  0  0  0  0  0  0  0
   29.6730   13.3400   25.1930 C   0  0  0  0  0  0  0  0  0  0  0  0
   31.1430   13.7460   24.8330 C   0  0  0  0  0  0  0  0  0  0  0  0
   31.7370   14.6350   25.4800 O   0  0  0  0  0  0  0  0  0  0  0  0
   28.6260   14.0900   24.3030 C   0  0  0  0  0  0  0  0  0  0  0  0
   28.6610   15.6220   24.3470 C   0  0  0  0  0  0  0  0  0  0  0  0
   27.9170   16.2470   25.1430 O   0  0  0  0  0  0  0  0  0  0  0  0
   29.5030   16.2970   23.4930 N   0  0  0  0  0  0  0  0  0  0  0  0
   29.1590   12.2070   27.6450 S   0  0  0  0  0  0  0  0  0  0  0  0
   28.8270   12.7870   28.8980 O   0  0  0  0  0  0  0  0  0  0  0  0
   28.2170   11.3520   27.0330 O   0  0  0  0  0  0  0  0  0  0  0  0
   30.7720   10.0930   27.2600 C   0  0  0  0  0  0  0  0  0  0  0  0
   30.5840   11.3240   27.8610 C   0  0  0  0  0  0  0  0  0  0  0  0
   31.6070   11.8410   28.7060 C   0  0  0  0  0  0  0  0  0  0  0  0
   32.7700   11.1520   28.9240 C   0  0  0  0  0  0  0  0  0  0  0  0
   34.1730    9.1510   28.5150 C   0  0  0  0  0  0  0  0  0  0  0  0
   34.3360    7.9290   27.9000 C   0  0  0  0  0  0  0  0  0  0  0  0
   33.3310    7.3820   27.0600 C   0  0  0  0  0  0  0  0  0  0  0  0
   32.1680    8.0830   26.8470 C   0  0  0  0  0  0  0  0  0  0  0  0
   31.9650    9.3530   27.4650 C   0  0  0  0  0  0  0  0  0  0  0  0
   32.9790    9.8910   28.3080 C   0  0  0  0  0  0  0  0  0  0  0  0
   31.7810   13.0840   23.8000 N   0  0  0  0  0  0  0  0  0  0  0  0
   31.0250   12.4100   22.7610 C   0  0  0  0  0  0  0  0  0  0  0  0
   31.5490   10.9830   22.5040 C   0  0  0  0  0  0  0  0  0  0  0  0
   33.0650   10.9090   22.3340 C   0  0  0  0  0  0  0  0  0  0  0  0
   33.8230   11.7880   23.3200 C   0  0  0  0  0  0  0  0  0  0  0  0
   33.1940   13.1710   23.4970 C   0  0  0  0  0  0  0  0  0  0  0  0
   30.9370   13.2140   21.4660 C   0  0  0  0  0  0  0  0  0  0  0  0
   31.1350   12.4680   20.3380 O   0  0  0  0  0  0  0  0  0  0  0  0
   30.7180   14.4300   21.3340 O   0  0  0  0  0  0  0  0  0  0  0  0
   33.5290    9.4700   22.4580 C   0  0  0  0  0  0  0  0  0  0  0  0
  2  1  1  0
 18  1  1  0
  3  2  1  0
  4  2  1  0
  5  3  1  0
  6  4  1  0
  7  5  1  0
  8  5  1  0
  7  6  1  0
  9  8  2  0
 10  8  1  0
 12 11  1  0
 19 11  1  0
 13 12  1  0
 15 12  1  0
 14 13  2  0
 32 13  1  0
 16 15  1  0
 17 16  2  0
 18 16  1  0
 20 19  2  0
 21 19  2  0
 23 19  1  0
 23 22  2  0
 30 22  1  0
 24 23  1  0
 25 24  2  0
 31 25  1  0
 27 26  1  0
 31 26  2  0
 28 27  2  0
 29 28  1  0
 30 29  2  0
 31 30  1  0
 33 32  1  0
 37 32  1  0
 34 33  1  0
 38 33  1  0
 35 34  1  0
 36 35  1  0
 41 35  1  0
 37 36  1  0
 39 38  2  0
 40 38  1  0
A    1
C20
A    2
C27
A    3
C32
A    4
C33
A    5
N37
A    6
C38
A    7
C40
A    8
C41
A    9
N43
A   10
N42
A   11
N3
A   12
C1
A   13
C2
A   14
O6
A   15
C4
A   16
C8
A   17
O15
A   18
N14
A   19
S7
A   20
O12
A   21
O13
A   22
C18
A   23
C11
A   24
C19
A   25
C26
A   26
C35
A   27
C39
A   28
C36
A   29
C31
A   30
C25
A   31
C30
A   32
N5
A   33
C21
A   34
C28
A   35
C10
A   36
C16
A   37
C9
A   38
C17
A   39
O23
A   40
O24
A   41
C29
M  END
>  <Id>  (12) 
4AYY_9MX_B_1258

>  <ChainId>  (12) 
B

>  <AsymId>  (12) 
D

>  <SeqNum>  (12) 
1258

>  <Name>  (12) 
(R)-1-[(S)-3-[((S)-1-Carbamimidoyl-piperidin-3-ylmethyl)-carbamoyl]-2-(naphthalene-2-sulfonylamino)-propionyl]-4-methyl-piperidine-2-carboxylic acid

>  <SystematicName>  (12) 
(2R,4R)-1-[(2S)-4-[[(3S)-1-carbamimidoylpiperidin-3-yl]methylamino]-2-(naphthalen-2-ylsulfonylamino)-4-oxidanylidene-butanoyl]-4-methyl-piperidine-2-carboxylic acid

>  <Synonyms>  (12) 


>  <Type>  (12) 
non-polymer

>  <Formula>  (12) 
C28 H38 N6 O6 S

>  <ObservedFormula>  (12) 
C28 S N6 O6

>  <MolecularWeight>  (12) 
586.703

>  <ModifiedDate>  (12) 
2012-08-10

>  <Parent>  (12) 


>  <OneLetterCode>  (12) 


>  <SubcomponentList>  (12) 
04P ASN NAS MCP

>  <AmbiguousFlag>  (12) 
N

>  <InsertionCode>  (12) 


>  <InstanceId>  (12) 
4AYY_9MX_B_1258

>  <ChemCompId>  (12) 
9MX

>  <PdbId>  (12) 
4AYY

>  <ResidueNumber>  (12) 
1258

>  <InChI>  (12) 
InChI=1S/C28H38N6O6S/c1-18-10-12-34(24(13-18)27(37)38)26(36)23(15-25(35)31-16-19-5-4-11-33(17-19)28(29)30)32-41(39,40)22-9-8-20-6-2-3-7-21(20)14-22/h2-3,6-9,14,18-19,23-24,32H,4-5,10-13,15-17H2,1H3,(H3,29,30)(H,31,35)(H,37,38)/t18-,19+,23+,24-/m1/s1

>  <InChIKey>  (12) 
BPPNPBQJRWCUDE-RJADORODSA-N

>  <SMILES>  (12) 
[H]/N=C(/N)\N1CCC[C@H](C1)CNC(=O)C[C@@H](C(=O)N2CC[C@H](C[C@@H]2C(=O)O)C)NS(=O)(=O)c3ccc4ccccc4c3

>  <MissingHeavyAtoms>  (12) 
0

>  <Model>  (12) 
1

>  <AltIds>  (12) 


>  <pKI>  (12) 
8.17

>  <ChemblID>  (12) 
CHEMBL126238

>  <standardized_canonical_smiles>  (12) 
C[C@@H]1CCN(C(=O)[C@H](CC(=O)NC[C@@H]2CCCN(C(=N)N)C2)NS(=O)(=O)c2ccc3ccccc3c2)[C@@H](C(=O)O)C1

$$$$
4AZ2_9MU_B_1258
     RDKit          3D

 35 38  0  0  0  0  0  0  0  0999 V2000
   30.4020   13.2940   24.1520 N   0  0  0  0  0  0  0  0  0  0  0  0
   29.4670   13.7990   25.2030 C   0  0  0  0  0  0  0  0  0  0  0  0
   29.1270   15.2790   24.9440 C   0  0  0  0  0  0  0  0  0  0  0  0
   28.3660   15.8740   25.7070 O   0  0  0  0  0  0  0  0  0  0  0  0
   28.1650   12.9530   25.3460 C   0  0  0  0  0  0  0  0  0  0  0  0
   28.5550   11.6340   26.0070 C   0  0  0  0  0  0  0  0  0  0  0  0
   28.7050   11.5810   27.4570 C   0  0  0  0  0  0  0  0  0  0  0  0
   28.8520   10.4580   25.2160 C   0  0  0  0  0  0  0  0  0  0  0  0
   29.1620   10.3850   28.0920 C   0  0  0  0  0  0  0  0  0  0  0  0
   29.3030    9.2690   25.8610 C   0  0  0  0  0  0  0  0  0  0  0  0
   29.4600    9.2360   27.2820 C   0  0  0  0  0  0  0  0  0  0  0  0
   32.0500   13.2000   24.4410 S   0  0  0  0  0  0  0  0  0  0  0  0
   32.3020   14.2650   25.3840 O   0  0  0  0  0  0  0  0  0  0  0  0
   32.7500   13.1370   23.2370 O   0  0  0  0  0  0  0  0  0  0  0  0
   32.4710   11.6600   26.6110 C   0  0  0  0  0  0  0  0  0  0  0  0
   32.3400   11.7490   25.2160 C   0  0  0  0  0  0  0  0  0  0  0  0
   32.5770   10.5550   24.4440 C   0  0  0  0  0  0  0  0  0  0  0  0
   32.9460    9.3510   25.0250 C   0  0  0  0  0  0  0  0  0  0  0  0
   33.4770    8.0490   27.0660 C   0  0  0  0  0  0  0  0  0  0  0  0
   33.5990    8.0170   28.4400 C   0  0  0  0  0  0  0  0  0  0  0  0
   33.3620    9.1710   29.2380 C   0  0  0  0  0  0  0  0  0  0  0  0
   32.9980   10.3650   28.6510 C   0  0  0  0  0  0  0  0  0  0  0  0
   32.8570   10.4400   27.2300 C   0  0  0  0  0  0  0  0  0  0  0  0
   33.0980    9.2720   26.4330 C   0  0  0  0  0  0  0  0  0  0  0  0
   29.7300   15.8930   23.8630 N   0  0  0  0  0  0  0  0  0  0  0  0
   29.5070   17.3030   23.5000 C   0  0  0  0  0  0  0  0  0  0  0  0
   30.7560   18.2080   23.7690 C   0  0  0  0  0  0  0  0  0  0  0  0
   31.1850   18.1050   25.2770 C   0  0  0  0  0  0  0  0  0  0  0  0
   31.9300   17.8520   22.8110 C   0  0  0  0  0  0  0  0  0  0  0  0
   32.3940   18.9750   25.4330 N   0  0  0  0  0  0  0  0  0  0  0  0
   33.1550   18.7320   23.1060 C   0  0  0  0  0  0  0  0  0  0  0  0
   33.5990   18.6520   24.6080 C   0  0  0  0  0  0  0  0  0  0  0  0
   32.3420   20.0960   26.3190 C   0  0  0  0  0  0  0  0  0  0  0  0
   33.4560   20.8780   26.4390 N   0  0  0  0  0  0  0  0  0  0  0  0
   31.2690   20.3120   26.9520 N   0  0  0  0  0  0  0  0  0  0  0  0
  2  1  1  0
 12  1  1  0
  3  2  1  0
  5  2  1  0
  4  3  2  0
 25  3  1  0
  6  5  1  0
  7  6  2  0
  8  6  1  0
  9  7  1  0
 10  8  2  0
 11  9  2  0
 11 10  1  0
 13 12  2  0
 14 12  2  0
 16 12  1  0
 16 15  2  0
 23 15  1  0
 17 16  1  0
 18 17  2  0
 24 18  1  0
 20 19  1  0
 24 19  2  0
 21 20  2  0
 22 21  1  0
 23 22  2  0
 24 23  1  0
 26 25  1  0
 27 26  1  0
 28 27  1  0
 29 27  1  0
 30 28  1  0
 31 29  1  0
 32 30  1  0
 33 30  1  0
 32 31  1  0
 34 33  1  0
 35 33  2  0
A    1
N12
A    2
C15
A    3
C17
A    4
O20
A    5
C16
A    6
C18
A    7
C21
A    8
C22
A    9
C24
A   10
C25
A   11
C27
A   12
S11
A   13
O14
A   14
O13
A   15
C3
A   16
C7
A   17
C9
A   18
C5
A   19
C6
A   20
C10
A   21
C8
A   22
C4
A   23
C1
A   24
C2
A   25
N19
A   26
C23
A   27
C26
A   28
C28
A   29
C29
A   30
N30
A   31
C31
A   32
C32
A   33
C33
A   34
N34
A   35
N35
M  END
>  <Id>  (13) 
4AZ2_9MU_B_1258

>  <ChainId>  (13) 
B

>  <AsymId>  (13) 
D

>  <SeqNum>  (13) 
1258

>  <Name>  (13) 
(R)-N-((S)-1-CARBAMIMIDOYL-PIPERIDIN-3-YLMETHYL)-2-(NAPHTHALENE-2-SULFONYLAMINO)-3-PHENYL-PROPIONAMIDE

>  <SystematicName>  (13) 
(2R)-N-[[(3S)-1-carbamimidoylpiperidin-3-yl]methyl]-2-(naphthalen-2-ylsulfonylamino)-3-phenyl-propanamide

>  <Synonyms>  (13) 


>  <Type>  (13) 
non-polymer

>  <Formula>  (13) 
C26 H31 N5 O3 S

>  <ObservedFormula>  (13) 
C26 S N5 O3

>  <MolecularWeight>  (13) 
493.621

>  <ModifiedDate>  (13) 
2014-09-05

>  <Parent>  (13) 


>  <OneLetterCode>  (13) 


>  <SubcomponentList>  (13) 
DPN NAS 04H

>  <AmbiguousFlag>  (13) 
N

>  <InsertionCode>  (13) 


>  <InstanceId>  (13) 
4AZ2_9MU_B_1258

>  <ChemCompId>  (13) 
9MU

>  <PdbId>  (13) 
4AZ2

>  <ResidueNumber>  (13) 
1258

>  <InChI>  (13) 
InChI=1S/C26H31N5O3S/c27-26(28)31-14-6-9-20(18-31)17-29-25(32)24(15-19-7-2-1-3-8-19)30-35(33,34)23-13-12-21-10-4-5-11-22(21)16-23/h1-5,7-8,10-13,16,20,24,30H,6,9,14-15,17-18H2,(H3,27,28)(H,29,32)/t20-,24+/m0/s1

>  <InChIKey>  (13) 
WWJJOLLOSVQTGQ-GBXCKJPGSA-N

>  <SMILES>  (13) 
[H]/N=C(\N)/N1CCC[C@H](C1)CNC(=O)[C@@H](Cc2ccccc2)NS(=O)(=O)c3ccc4ccccc4c3

>  <MissingHeavyAtoms>  (13) 
0

>  <Model>  (13) 
1

>  <AltIds>  (13) 


>  <pKI>  (13) 
7.49

>  <ChemblID>  (13) 
CHEMBL544830

>  <standardized_canonical_smiles>  (13) 
N=C(N)N1CCC[C@@H](CNC(=O)[C@@H](Cc2ccccc2)NS(=O)(=O)c2ccc3ccccc3c2)C1

$$$$
4AYV_9MQ_B_1258
     RDKit          3D

 43 46  0  0  0  0  0  0  0  0999 V2000
   29.5220   17.6380   23.6890 C   0  0  0  0  0  0  0  0  0  0  0  0
   30.8390   18.3690   24.0410 C   0  0  0  0  0  0  0  0  0  0  0  0
   31.3550   18.0230   25.4550 C   0  0  0  0  0  0  0  0  0  0  0  0
   31.9390   18.0500   22.9780 C   0  0  0  0  0  0  0  0  0  0  0  0
   32.5790   18.8780   25.6450 N   0  0  0  0  0  0  0  0  0  0  0  0
   33.1470   18.9460   23.2170 C   0  0  0  0  0  0  0  0  0  0  0  0
   33.7130   18.6960   24.6470 C   0  0  0  0  0  0  0  0  0  0  0  0
   32.4270   20.0940   26.3010 C   0  0  0  0  0  0  0  0  0  0  0  0
   33.5130   20.8500   26.3420 N   0  0  0  0  0  0  0  0  0  0  0  0
   31.2690   20.4210   26.8120 N   0  0  0  0  0  0  0  0  0  0  0  0
   29.7500   13.4180   26.6610 N   0  0  0  0  0  0  0  0  0  0  0  0
   29.8930   13.1300   25.2750 C   0  0  0  0  0  0  0  0  0  0  0  0
   31.3070   13.5900   24.8610 C   0  0  0  0  0  0  0  0  0  0  0  0
   31.9250   14.4320   25.5460 O   0  0  0  0  0  0  0  0  0  0  0  0
   28.8640   13.9020   24.4000 C   0  0  0  0  0  0  0  0  0  0  0  0
   28.8340   15.4080   24.5570 C   0  0  0  0  0  0  0  0  0  0  0  0
   28.2160   15.9780   25.4840 O   0  0  0  0  0  0  0  0  0  0  0  0
   29.5500   16.1520   23.5980 N   0  0  0  0  0  0  0  0  0  0  0  0
   29.3100   12.2750   27.7580 S   0  0  0  0  0  0  0  0  0  0  0  0
   28.3600   11.4260   27.1480 O   0  0  0  0  0  0  0  0  0  0  0  0
   29.0630   13.0620   28.9540 O   0  0  0  0  0  0  0  0  0  0  0  0
   30.7640   10.0600   27.3130 C   0  0  0  0  0  0  0  0  0  0  0  0
   30.6550   11.3050   27.9310 C   0  0  0  0  0  0  0  0  0  0  0  0
   31.7320   11.7770   28.7590 C   0  0  0  0  0  0  0  0  0  0  0  0
   32.8630   11.0470   28.9660 C   0  0  0  0  0  0  0  0  0  0  0  0
   34.1770    9.0060   28.5940 C   0  0  0  0  0  0  0  0  0  0  0  0
   34.2830    7.7690   28.0090 C   0  0  0  0  0  0  0  0  0  0  0  0
   33.2400    7.2410   27.1760 C   0  0  0  0  0  0  0  0  0  0  0  0
   32.0880    7.9720   26.9330 C   0  0  0  0  0  0  0  0  0  0  0  0
   31.9400    9.2660   27.5250 C   0  0  0  0  0  0  0  0  0  0  0  0
   33.0030    9.7730   28.3620 C   0  0  0  0  0  0  0  0  0  0  0  0
   31.8680   13.0410   23.7070 N   0  0  0  0  0  0  0  0  0  0  0  0
   31.1810   11.9550   22.9330 C   0  0  0  0  0  0  0  0  0  0  0  0
   33.0980   13.5900   23.1120 C   0  0  0  0  0  0  0  0  0  0  0  0
   32.1270   10.8190   22.7310 C   0  0  0  0  0  0  0  0  0  0  0  0
   32.6770   14.5420   21.9980 C   0  0  0  0  0  0  0  0  0  0  0  0
   32.7400   10.1950   23.8550 C   0  0  0  0  0  0  0  0  0  0  0  0
   32.4150   10.4040   21.4390 C   0  0  0  0  0  0  0  0  0  0  0  0
   33.6120   14.6840   21.0680 O   0  0  0  0  0  0  0  0  0  0  0  0
   31.6230   15.1370   21.8670 O   0  0  0  0  0  0  0  0  0  0  0  0
   33.6560    9.1490   23.6740 C   0  0  0  0  0  0  0  0  0  0  0  0
   33.3350    9.3500   21.2520 C   0  0  0  0  0  0  0  0  0  0  0  0
   33.9590    8.7220   22.3530 C   0  0  0  0  0  0  0  0  0  0  0  0
  2  1  1  0
 18  1  1  0
  3  2  1  0
  4  2  1  0
  5  3  1  0
  6  4  1  0
  7  5  1  0
  8  5  1  0
  7  6  1  0
  9  8  2  0
 10  8  1  0
 12 11  1  0
 19 11  1  0
 13 12  1  0
 15 12  1  0
 14 13  2  0
 32 13  1  0
 16 15  1  0
 17 16  2  0
 18 16  1  0
 20 19  2  0
 21 19  2  0
 23 19  1  0
 23 22  2  0
 30 22  1  0
 24 23  1  0
 25 24  2  0
 31 25  1  0
 27 26  1  0
 31 26  2  0
 28 27  2  0
 29 28  1  0
 30 29  2  0
 31 30  1  0
 33 32  1  0
 34 32  1  0
 35 33  1  0
 36 34  1  0
 37 35  2  0
 38 35  1  0
 39 36  1  0
 40 36  2  0
 41 37  1  0
 42 38  2  0
 43 41  2  0
 43 42  1  0
A    1
C20
A    2
C27
A    3
C32
A    4
C33
A    5
N37
A    6
C38
A    7
C40
A    8
C41
A    9
N42
A   10
N43
A   11
N3
A   12
C1
A   13
C2
A   14
O6
A   15
C4
A   16
C8
A   17
O15
A   18
N14
A   19
S7
A   20
O13
A   21
O12
A   22
C18
A   23
C11
A   24
C19
A   25
C26
A   26
C35
A   27
C39
A   28
C36
A   29
C31
A   30
C25
A   31
C30
A   32
N5
A   33
C9
A   34
C10
A   35
C16
A   36
C17
A   37
C21
A   38
C22
A   39
O23
A   40
O24
A   41
C28
A   42
C29
A   43
C34
M  END
>  <Id>  (14) 
4AYV_9MQ_B_1258

>  <ChainId>  (14) 
B

>  <AsymId>  (14) 
D

>  <SeqNum>  (14) 
1258

>  <Name>  (14) 
{Benzyl-[(S)-3-[((S)-1-carbamimidoyl-piperidin-3-ylmethyl)-carbamoyl]-2-(naphthalene-2-sulfonylamino)-propionyl]-amino}-acetic acid

>  <SystematicName>  (14) 
2-[[(2S)-4-[[(3S)-1-carbamimidoylpiperidin-3-yl]methylamino]-2-(naphthalen-2-ylsulfonylamino)-4-oxidanylidene-butanoyl]-(phenylmethyl)amino]ethanoic acid

>  <Synonyms>  (14) 


>  <Type>  (14) 
non-polymer

>  <Formula>  (14) 
C30 H36 N6 O6 S

>  <ObservedFormula>  (14) 
C30 S N6 O6

>  <MolecularWeight>  (14) 
608.708

>  <ModifiedDate>  (14) 
2014-09-05

>  <Parent>  (14) 


>  <OneLetterCode>  (14) 


>  <SubcomponentList>  (14) 
04P ASN NAS 04Q

>  <AmbiguousFlag>  (14) 
N

>  <InsertionCode>  (14) 


>  <InstanceId>  (14) 
4AYV_9MQ_B_1258

>  <ChemCompId>  (14) 
9MQ

>  <PdbId>  (14) 
4AYV

>  <ResidueNumber>  (14) 
1258

>  <InChI>  (14) 
InChI=1S/C30H36N6O6S/c31-30(32)35-14-6-9-22(19-35)17-33-27(37)16-26(29(40)36(20-28(38)39)18-21-7-2-1-3-8-21)34-43(41,42)25-13-12-23-10-4-5-11-24(23)15-25/h1-5,7-8,10-13,15,22,26,34H,6,9,14,16-20H2,(H3,31,32)(H,33,37)(H,38,39)/t22-,26-/m0/s1

>  <InChIKey>  (14) 
ZWJYDBRLGHLMKT-NVQXNPDNSA-N

>  <SMILES>  (14) 
[H]/N=C(\N)/N1CCC[C@H](C1)CNC(=O)C[C@@H](C(=O)N(Cc2ccccc2)CC(=O)O)NS(=O)(=O)c3ccc4ccccc4c3

>  <MissingHeavyAtoms>  (14) 
0

>  <Model>  (14) 
1

>  <AltIds>  (14) 


>  <pKI>  (14) 
9.17

>  <ChemblID>  (14) 
CHEMBL341260

>  <standardized_canonical_smiles>  (14) 
N=C(N)N1CCC[C@@H](CNC(=O)C[C@H](NS(=O)(=O)c2ccc3ccccc3c2)C(=O)N(CC(=O)O)Cc2ccccc2)C1

$$$$
1DWD_MID_H_1
     RDKit          3D

 37 40  0  0  0  0  0  0  0  0999 V2000
   29.3410   12.4380   27.0580 S   0  0  0  0  0  0  0  0  0  0  0  0
   28.3630   11.8390   26.1820 O   0  0  0  0  0  0  0  0  0  0  0  0
   29.0620   12.8090   28.4350 O   0  0  0  0  0  0  0  0  0  0  0  0
   31.7270   11.4390   27.9370 C   0  0  0  0  0  0  0  0  0  0  0  0
   30.6400   11.2630   27.1350 C   0  0  0  0  0  0  0  0  0  0  0  0
   30.5070   10.1480   26.3150 C   0  0  0  0  0  0  0  0  0  0  0  0
   31.4640    9.1710   26.3000 C   0  0  0  0  0  0  0  0  0  0  0  0
   33.5680    8.2670   27.1180 C   0  0  0  0  0  0  0  0  0  0  0  0
   34.6900    8.4150   27.8780 C   0  0  0  0  0  0  0  0  0  0  0  0
   34.8520    9.5850   28.6810 C   0  0  0  0  0  0  0  0  0  0  0  0
   33.8930   10.5930   28.7020 C   0  0  0  0  0  0  0  0  0  0  0  0
   32.7410   10.4530   27.9200 C   0  0  0  0  0  0  0  0  0  0  0  0
   32.5820    9.2850   27.1330 C   0  0  0  0  0  0  0  0  0  0  0  0
   29.9850   13.7390   26.3060 N   0  0  0  0  0  0  0  0  0  0  0  0
   30.0460   13.7400   24.8830 C   0  0  0  0  0  0  0  0  0  0  0  0
   31.4080   14.0330   24.4730 C   0  0  0  0  0  0  0  0  0  0  0  0
   32.3780   14.1170   25.2350 O   0  0  0  0  0  0  0  0  0  0  0  0
   31.5060   14.2480   23.1380 N   0  0  0  0  0  0  0  0  0  0  0  0
   32.7930   14.5390   22.4860 C   0  0  0  0  0  0  0  0  0  0  0  0
   32.9780   13.4720   21.4620 C   0  0  0  0  0  0  0  0  0  0  0  0
   32.7440   13.5950   20.2550 O   0  0  0  0  0  0  0  0  0  0  0  0
   32.7220   15.8910   21.7900 C   0  0  0  0  0  0  0  0  0  0  0  0
   32.6760   16.9470   22.8070 C   0  0  0  0  0  0  0  0  0  0  0  0
   33.8380   17.4680   23.3090 C   0  0  0  0  0  0  0  0  0  0  0  0
   31.4630   17.3550   23.2950 C   0  0  0  0  0  0  0  0  0  0  0  0
   33.7800   18.4850   24.2800 C   0  0  0  0  0  0  0  0  0  0  0  0
   31.3820   18.3620   24.2600 C   0  0  0  0  0  0  0  0  0  0  0  0
   32.5450   18.9280   24.7480 C   0  0  0  0  0  0  0  0  0  0  0  0
   32.4750   19.9650   25.7860 C   0  0  0  0  0  0  0  0  0  0  0  0
   31.2960   20.4290   26.2370 N   0  0  0  0  0  0  0  0  0  0  0  0
   33.5310   20.7490   26.0440 N   0  0  0  0  0  0  0  0  0  0  0  0
   33.4730   12.2860   22.0110 N   0  0  0  0  0  0  0  0  0  0  0  0
   33.7560   12.1980   23.4560 C   0  0  0  0  0  0  0  0  0  0  0  0
   33.0510   10.9910   24.0860 C   0  0  0  0  0  0  0  0  0  0  0  0
   33.3310    9.7150   23.2650 C   0  0  0  0  0  0  0  0  0  0  0  0
   32.9400    9.9200   21.7710 C   0  0  0  0  0  0  0  0  0  0  0  0
   33.6900   11.1160   21.1670 C   0  0  0  0  0  0  0  0  0  0  0  0
  2  1  2  0
  3  1  2  0
  5  1  1  0
 14  1  1  0
  5  4  2  0
 12  4  1  0
  6  5  1  0
  7  6  2  0
 13  7  1  0
  9  8  1  0
 13  8  2  0
 10  9  2  0
 11 10  1  0
 12 11  2  0
 13 12  1  0
 15 14  1  0
 16 15  1  0
 17 16  2  0
 18 16  1  0
 19 18  1  0
 20 19  1  0
 22 19  1  0
 21 20  2  0
 32 20  1  0
 23 22  1  0
 24 23  2  0
 25 23  1  0
 26 24  1  0
 27 25  2  0
 28 26  2  0
 28 27  1  0
 29 28  1  0
 30 29  2  0
 31 29  1  0
 33 32  1  0
 37 32  1  0
 34 33  1  0
 35 34  1  0
 36 35  1  0
 37 36  1  0
A    1
S
A    2
O1S
A    3
O2S
A    4
C1
A    5
C2
A    6
C3
A    7
C4
A    8
C5
A    9
C6
A   10
C7
A   11
C8
A   12
C9
A   13
C10
A   14
N
A   15
CA
A   16
C
A   17
O
A   18
N1
A   19
CA1
A   20
CB
A   21
O1
A   22
CB1
A   23
CG
A   24
CD1
A   25
CD2
A   26
CE1
A   27
CE2
A   28
CZ
A   29
CF
A   30
NG1
A   31
NG2
A   32
N11
A   33
C21
A   34
C31
A   35
C41
A   36
C51
A   37
C61
M  END
>  <Id>  (15) 
1DWD_MID_H_1

>  <ChainId>  (15) 
H

>  <AsymId>  (15) 
D

>  <SeqNum>  (15) 
1

>  <Name>  (15) 
1-[N-(naphthalen-2-ylsulfonyl)glycyl-4-carbamimidoyl-D-phenylalanyl]piperidine

>  <SystematicName>  (15) 
N-[(2R)-3-(4-carbamimidoylphenyl)-1-oxo-1-piperidin-1-yl-propan-2-yl]-2-(naphthalen-2-ylsulfonylamino)ethanamide

>  <Synonyms>  (15) 
NAPAP

>  <Type>  (15) 
peptide-like

>  <Formula>  (15) 
C27 H31 N5 O4 S

>  <ObservedFormula>  (15) 
S C27 N5 O4

>  <MolecularWeight>  (15) 
521.631

>  <ModifiedDate>  (15) 
2011-06-04

>  <Parent>  (15) 


>  <OneLetterCode>  (15) 


>  <SubcomponentList>  (15) 
NAS GLY APH PIP

>  <AmbiguousFlag>  (15) 
N

>  <InsertionCode>  (15) 


>  <InstanceId>  (15) 
1DWD_MID_H_1

>  <ChemCompId>  (15) 
MID

>  <PdbId>  (15) 
1DWD

>  <ResidueNumber>  (15) 
1

>  <InChI>  (15) 
InChI=1S/C27H31N5O4S/c28-26(29)21-10-8-19(9-11-21)16-24(27(34)32-14-4-1-5-15-32)31-25(33)18-30-37(35,36)23-13-12-20-6-2-3-7-22(20)17-23/h2-3,6-13,17,24,30H,1,4-5,14-16,18H2,(H3,28,29)(H,31,33)/t24-/m1/s1

>  <InChIKey>  (15) 
XXTWZTPVNIYSJZ-XMMPIXPASA-N

>  <SMILES>  (15) 
[H]/N=C(/c1ccc(cc1)C[C@H](C(=O)N2CCCCC2)NC(=O)CNS(=O)(=O)c3ccc4ccccc4c3)\N

>  <MissingHeavyAtoms>  (15) 
0

>  <Model>  (15) 
1

>  <AltIds>  (15) 


>  <pKI>  (15) 
8.25

>  <ChemblID>  (15) 
CHEMBL51173

>  <standardized_canonical_smiles>  (15) 
N=C(N)c1ccc(C[C@@H](NC(=O)CNS(=O)(=O)c2ccc3ccccc3c2)C(=O)N2CCCCC2)cc1

$$$$
2ZO3_33U_H_2501
     RDKit          3D

 35 38  0  0  0  0  0  0  0  0999 V2000
   18.5960  -17.5430   24.9920 C   0  0  0  0  0  0  0  0  0  0  0  0
   18.6290  -18.7390   25.7250 C   0  0  0  0  0  0  0  0  0  0  0  0
   18.3040  -18.7250   27.0810 C   0  0  0  0  0  0  0  0  0  0  0  0
   17.9470  -17.5430   27.7200 C   0  0  0  0  0  0  0  0  0  0  0  0
   17.9150  -16.3500   26.9880 C   0  0  0  0  0  0  0  0  0  0  0  0
   18.2380  -16.3490   25.6270 C   0  0  0  0  0  0  0  0  0  0  0  0
   18.2260  -15.0720   24.7510 C   0  0  0  0  0  0  0  0  0  0  0  0
   17.7610  -15.2520   23.2790 C   0  0  0  0  0  0  0  0  0  0  0  0
   17.7230  -13.8800   22.6210 C   0  0  0  0  0  0  0  0  0  0  0  0
   16.8080  -13.1400   22.9930 O   0  0  0  0  0  0  0  0  0  0  0  0
   16.4490  -15.9680   23.1650 N   0  0  0  0  0  0  0  0  0  0  0  0
   19.6290  -14.4240   24.8070 C   0  0  0  0  0  0  0  0  0  0  0  0
   20.7220  -14.9670   24.1220 C   0  0  0  0  0  0  0  0  0  0  0  0
   21.9730  -14.3330   24.2100 C   0  0  0  0  0  0  0  0  0  0  0  0
   22.1540  -13.1820   24.9610 C   0  0  0  0  0  0  0  0  0  0  0  0
   21.0620  -12.6360   25.6470 C   0  0  0  0  0  0  0  0  0  0  0  0
   19.8190  -13.2660   25.5580 C   0  0  0  0  0  0  0  0  0  0  0  0
   18.6110  -13.4510   21.6830 N   0  0  0  0  0  0  0  0  0  0  0  0
   18.4760  -12.1080   21.1290 C   0  0  0  0  0  0  0  0  0  0  0  0
   17.1200  -12.0380   20.4430 C   0  0  0  0  0  0  0  0  0  0  0  0
   16.7520  -13.0260   19.8230 O   0  0  0  0  0  0  0  0  0  0  0  0
   19.5610  -12.1080   20.0100 C   0  0  0  0  0  0  0  0  0  0  0  0
   20.5050  -13.2450   20.4680 C   0  0  0  0  0  0  0  0  0  0  0  0
   19.5020  -14.3450   20.9290 C   0  0  0  0  0  0  0  0  0  0  0  0
   16.4550  -10.8700   20.5460 N   0  0  0  0  0  0  0  0  0  0  0  0
   15.1690  -10.8060   19.7930 C   0  0  0  0  0  0  0  0  0  0  0  0
   14.0590  -10.6760   20.8370 C   0  0  0  0  0  0  0  0  0  0  0  0
   13.6160  -11.8180   21.4860 C   0  0  0  0  0  0  0  0  0  0  0  0
   12.6140  -11.7930   22.4460 C   0  0  0  0  0  0  0  0  0  0  0  0
   12.0150  -10.5710   22.7850 C   0  0  0  0  0  0  0  0  0  0  0  0
   10.9220  -10.5600   23.8390 C   0  0  0  0  0  0  0  0  0  0  0  0
   10.2390  -11.6890   24.1310 N   0  0  0  0  0  0  0  0  0  0  0  0
   10.6440   -9.4830   24.4530 N   0  0  0  0  0  0  0  0  0  0  0  0
   12.4490   -9.4150   22.1440 C   0  0  0  0  0  0  0  0  0  0  0  0
   13.4640   -9.4540   21.1730 C   0  0  0  0  0  0  0  0  0  0  0  0
  2  1  2  0
  6  1  1  0
  3  2  1  0
  4  3  2  0
  5  4  1  0
  6  5  2  0
  7  6  1  0
  8  7  1  0
 12  7  1  0
  9  8  1  0
 11  8  1  0
 10  9  2  0
 18  9  1  0
 13 12  2  0
 17 12  1  0
 14 13  1  0
 15 14  2  0
 16 15  1  0
 17 16  2  0
 19 18  1  0
 24 18  1  0
 20 19  1  0
 22 19  1  0
 21 20  2  0
 25 20  1  0
 23 22  1  0
 24 23  1  0
 26 25  1  0
 27 26  1  0
 28 27  2  0
 35 27  1  0
 29 28  1  0
 30 29  2  0
 31 30  1  0
 34 30  1  0
 32 31  2  0
 33 31  1  0
 35 34  2  0
A    1
C37
A    2
C26
A    3
C25
A    4
C34
A    5
C23
A    6
C7
A    7
C8
A    8
C9
A    9
C10
A   10
O32
A   11
N2
A   12
C1
A   13
C6
A   14
C5
A   15
C4
A   16
C3
A   17
C2
A   18
N1
A   19
C14
A   20
C15
A   21
O22
A   22
C13
A   23
C12
A   24
C11
A   25
N23
A   26
C16
A   27
C17
A   28
C22
A   29
C21
A   30
C24
A   31
C27
A   32
N35
A   33
N34
A   34
C19
A   35
C18
M  END
>  <Id>  (16) 
2ZO3_33U_H_2501

>  <ChainId>  (16) 
H

>  <AsymId>  (16) 
D

>  <SeqNum>  (16) 
2501

>  <Name>  (16) 
beta-phenyl-D-phenylalanyl-N-(4-carbamimidoylbenzyl)-L-prolinamide

>  <SystematicName>  (16) 
(2S)-1-[(2R)-2-azanyl-3,3-diphenyl-propanoyl]-N-[(4-carbamimidoylphenyl)methyl]pyrrolidine-2-carboxamide

>  <Synonyms>  (16) 


>  <Type>  (16) 
peptide-like

>  <Formula>  (16) 
C28 H31 N5 O2

>  <ObservedFormula>  (16) 
C28 N5 O2

>  <MolecularWeight>  (16) 
469.578

>  <ModifiedDate>  (16) 
2012-01-05

>  <Parent>  (16) 


>  <OneLetterCode>  (16) 


>  <SubcomponentList>  (16) 
00O PRO 00S

>  <AmbiguousFlag>  (16) 
N

>  <InsertionCode>  (16) 


>  <InstanceId>  (16) 
2ZO3_33U_H_2501

>  <ChemCompId>  (16) 
33U

>  <PdbId>  (16) 
2ZO3

>  <ResidueNumber>  (16) 
2501

>  <InChI>  (16) 
InChI=1S/C28H31N5O2/c29-25(24(20-8-3-1-4-9-20)21-10-5-2-6-11-21)28(35)33-17-7-12-23(33)27(34)32-18-19-13-15-22(16-14-19)26(30)31/h1-6,8-11,13-16,23-25H,7,12,17-18,29H2,(H3,30,31)(H,32,34)/t23-,25+/m0/s1

>  <InChIKey>  (16) 
ODAPDZPYLPTJOD-UKILVPOCSA-N

>  <SMILES>  (16) 
[H]/N=C(/c1ccc(cc1)CNC(=O)[C@@H]2CCCN2C(=O)[C@@H](C(c3ccccc3)c4ccccc4)N)\N

>  <MissingHeavyAtoms>  (16) 
0

>  <Model>  (16) 
1

>  <AltIds>  (16) 


>  <pKI>  (16) 
10.44

>  <ChemblID>  (16) 
CHEMBL1159694

>  <standardized_canonical_smiles>  (16) 
N=C(N)c1ccc(CNC(=O)[C@@H]2CCCN2C(=O)[C@H](N)C(c2ccccc2)c2ccccc2)cc1

$$$$
1QBV_PPX_H_907
     RDKit          3D

 28 30  0  0  0  0  0  0  0  0999 V2000
   16.5750  -16.9570   23.5180 N   0  0  0  0  0  0  0  0  0  0  0  0
   17.8510  -16.1860   23.6670 C   0  0  0  0  0  0  0  0  0  0  0  0
   17.6040  -14.8370   22.9630 C   0  0  0  0  0  0  0  0  0  0  0  0
   16.5700  -14.2150   23.1900 O   0  0  0  0  0  0  0  0  0  0  0  0
   18.1370  -15.9710   25.1610 C   0  0  0  0  0  0  0  0  0  0  0  0
   22.2570  -14.8100   25.4970 C   0  0  0  0  0  0  0  0  0  0  0  0
   19.9340  -14.3910   25.9840 C   0  0  0  0  0  0  0  0  0  0  0  0
   20.5860  -16.4500   24.9930 C   0  0  0  0  0  0  0  0  0  0  0  0
   21.2600  -13.9890   26.0220 C   0  0  0  0  0  0  0  0  0  0  0  0
   21.9240  -16.0560   25.0270 C   0  0  0  0  0  0  0  0  0  0  0  0
   22.2510  -14.8020   25.5410 C   0  0  0  0  0  0  0  0  0  0  0  0
   18.5200  -14.4270   22.0640 N   0  0  0  0  0  0  0  0  0  0  0  0
   18.3790  -13.1430   21.3490 C   0  0  0  0  0  0  0  0  0  0  0  0
   17.0600  -13.0640   20.5960 C   0  0  0  0  0  0  0  0  0  0  0  0
   16.7200  -13.9660   19.8340 O   0  0  0  0  0  0  0  0  0  0  0  0
   19.5820  -13.1550   20.3720 C   0  0  0  0  0  0  0  0  0  0  0  0
   20.5100  -14.2340   20.9120 C   0  0  0  0  0  0  0  0  0  0  0  0
   19.5980  -15.2610   21.4760 C   0  0  0  0  0  0  0  0  0  0  0  0
   16.3020  -11.9960   20.8110 N   0  0  0  0  0  0  0  0  0  0  0  0
   14.9960  -11.7850   20.1770 C   0  0  0  0  0  0  0  0  0  0  0  0
   14.0530  -11.0400   21.0760 C   0  0  0  0  0  0  0  0  0  0  0  0
   13.1720  -11.9830   21.6650 N   0  0  0  0  0  0  0  0  0  0  0  0
   12.3720  -11.6560   22.6740 C   0  0  0  0  0  0  0  0  0  0  0  0
   11.4520  -12.6130   23.0630 C   0  0  0  0  0  0  0  0  0  0  0  0
   10.6030  -12.3620   24.1440 C   0  0  0  0  0  0  0  0  0  0  0  0
   10.6820  -11.2130   24.8140 N   0  0  0  0  0  0  0  0  0  0  0  0
   11.5670  -10.2590   24.4560 C   0  0  0  0  0  0  0  0  0  0  0  0
   12.4380  -10.4570   23.3840 C   0  0  0  0  0  0  0  0  0  0  0  0
  2  1  1  0
  3  2  1  0
  5  2  1  0
  4  3  2  0
 12  3  1  0
  6  5  1  0
  7  6  2  0
  8  6  1  0
  9  7  1  0
 10  8  2  0
 11  9  2  0
 11 10  1  0
 13 12  1  0
 18 12  1  0
 14 13  1  0
 16 13  1  0
 15 14  2  0
 19 14  1  0
 17 16  1  0
 18 17  1  0
 20 19  1  0
 21 20  1  0
 22 21  1  0
 23 22  1  0
 24 23  2  0
 28 23  1  0
 25 24  1  0
 26 25  2  0
 27 26  1  0
 28 27  2  0
A    1
N1
A    2
C2
A    3
C10
A    4
O11
A    5
C3
A    6
C4
A    7
C5
A    8
C6
A    9
C7
A   10
C8
A   11
C9
A   12
N12
A   13
C14
A   14
C17
A   15
O18
A   16
C15
A   17
C16
A   18
C13
A   19
N19
A   20
C20
A   21
C30
A   22
N27
A   23
C21
A   24
C22
A   25
C23
A   26
N24
A   27
C25
A   28
C26
M  END
>  <Id>  (17) 
1QBV_PPX_H_907

>  <ChainId>  (17) 
H

>  <AsymId>  (17) 
D

>  <SeqNum>  (17) 
907

>  <Name>  (17) 
[PHENYLALANINYL-PROLINYL]-[2-(PYRIDIN-4-YLAMINO)-ETHYL]-AMINE

>  <SystematicName>  (17) 
(2S)-1-[(2R)-2-azanyl-3-phenyl-propanoyl]-N-[2-(pyridin-4-ylamino)ethyl]pyrrolidine-2-carboxamide

>  <Synonyms>  (17) 


>  <Type>  (17) 
peptide-like

>  <Formula>  (17) 
C21 H27 N5 O2

>  <ObservedFormula>  (17) 
C21 N5 O2

>  <MolecularWeight>  (17) 
381.471

>  <ModifiedDate>  (17) 
2011-06-04

>  <Parent>  (17) 


>  <OneLetterCode>  (17) 


>  <SubcomponentList>  (17) 
DPN PRO 01R

>  <AmbiguousFlag>  (17) 
N

>  <InsertionCode>  (17) 


>  <InstanceId>  (17) 
1QBV_PPX_H_907

>  <ChemCompId>  (17) 
PPX

>  <PdbId>  (17) 
1QBV

>  <ResidueNumber>  (17) 
907

>  <InChI>  (17) 
InChI=1S/C21H27N5O2/c22-18(15-16-5-2-1-3-6-16)21(28)26-14-4-7-19(26)20(27)25-13-12-24-17-8-10-23-11-9-17/h1-3,5-6,8-11,18-19H,4,7,12-15,22H2,(H,23,24)(H,25,27)/t18-,19+/m1/s1

>  <InChIKey>  (17) 
GEIDRYBJURDUSW-MOPGFXCFSA-N

>  <SMILES>  (17) 
c1ccc(cc1)C[C@H](C(=O)N2CCC[C@H]2C(=O)NCCNc3ccncc3)N

>  <MissingHeavyAtoms>  (17) 
0

>  <Model>  (17) 
1

>  <AltIds>  (17) 


>  <pKI>  (17) 
5.39

>  <ChemblID>  (17) 
CHEMBL65273

>  <standardized_canonical_smiles>  (17) 
N[C@H](Cc1ccccc1)C(=O)N1CCC[C@H]1C(=O)NCCNc1ccncc1

$$$$
1LHD_DI2_H_400
     RDKit          3D

 31 32  0  0  0  0  0  0  0  0999 V2000
   13.4780  -10.9310   19.9430 C   0  0  0  0  0  0  0  0  0  0  0  0
   20.6200  -13.6810   25.7410 C   0  0  0  0  0  0  0  0  0  0  0  0
   16.6560  -18.6510   22.0380 O   0  0  0  0  0  0  0  0  0  0  0  0
   16.6100  -12.8020   20.1260 C   0  0  0  0  0  0  0  0  0  0  0  0
   19.2180  -15.4300   24.8350 C   0  0  0  0  0  0  0  0  0  0  0  0
   19.2410  -14.8870   21.2040 C   0  0  0  0  0  0  0  0  0  0  0  0
   11.5610  -12.8790   22.6160 C   0  0  0  0  0  0  0  0  0  0  0  0
   21.6040  -15.3850   24.3510 C   0  0  0  0  0  0  0  0  0  0  0  0
   14.9900  -10.5580   17.9990 B   0  0  0  0  0  0  0  0  0  0  0  0
   20.3520  -15.9950   24.2120 C   0  0  0  0  0  0  0  0  0  0  0  0
   17.2670  -16.1400   23.2010 C   0  0  0  0  0  0  0  0  0  0  0  0
   15.9360  -16.8030   23.1770 N   0  0  0  0  0  0  0  0  0  0  0  0
   14.6830  -11.5260   19.2030 C   0  0  0  0  0  0  0  0  0  0  0  0
   19.1610  -12.6170   20.3060 C   0  0  0  0  0  0  0  0  0  0  0  0
   19.3620  -14.2660   25.6000 C   0  0  0  0  0  0  0  0  0  0  0  0
   16.1370  -14.0530   22.8650 O   0  0  0  0  0  0  0  0  0  0  0  0
   13.8200  -10.4880   17.1570 O   0  0  0  0  0  0  0  0  0  0  0  0
   13.0880  -11.4400   21.3240 C   0  0  0  0  0  0  0  0  0  0  0  0
   17.1280  -14.7320   22.5490 C   0  0  0  0  0  0  0  0  0  0  0  0
   11.8770  -12.3720   21.2930 C   0  0  0  0  0  0  0  0  0  0  0  0
   15.8820  -11.6610   20.1200 N   0  0  0  0  0  0  0  0  0  0  0  0
   16.0910  -10.8680   17.1680 O   0  0  0  0  0  0  0  0  0  0  0  0
   10.4250  -12.6060   23.3970 N   0  0  0  0  0  0  0  0  0  0  0  0
   16.3970  -13.7940   19.4070 O   0  0  0  0  0  0  0  0  0  0  0  0
   19.8350  -13.9710   20.1480 C   0  0  0  0  0  0  0  0  0  0  0  0
   17.8510  -12.8450   21.0770 C   0  0  0  0  0  0  0  0  0  0  0  0
   21.7350  -14.2320   25.1080 C   0  0  0  0  0  0  0  0  0  0  0  0
   17.8200  -16.0930   24.6890 C   0  0  0  0  0  0  0  0  0  0  0  0
   14.3320  -18.5780   22.6250 C   0  0  0  0  0  0  0  0  0  0  0  0
   15.7500  -18.0070   22.6010 C   0  0  0  0  0  0  0  0  0  0  0  0
   18.0470  -14.2130   21.6970 N   0  0  0  0  0  0  0  0  0  0  0  0
  7 23  1  0
  8 27  1  0
  8 10  2  0
 25  6  1  0
 19 31  1  0
 27  2  2  0
  9 22  1  0
 15  5  2  0
  9 17  1  0
 30  3  2  0
 20  7  1  0
 26 14  1  0
 19 16  2  0
  1 18  1  0
  4 21  1  0
 13 21  1  0
 11 12  1  0
 14 25  1  0
  6 31  1  0
 28 11  1  0
  9 13  1  0
 26  4  1  0
 19 11  1  0
 30 29  1  0
 13  1  1  0
  2 15  1  0
 18 20  1  0
 26 31  1  0
  4 24  2  0
 30 12  1  0
 28  5  1  0
  5 10  1  0
A    1
C2
A    2
C18
A    3
O4
A    4
C7
A    5
C20
A    6
C10
A    7
C5
A    8
C16
A    9
B1
A   10
C21
A   11
C13
A   12
N3
A   13
C
A   14
C8
A   15
C19
A   16
O3
A   17
O
A   18
C3
A   19
C11
A   20
C4
A   21
N
A   22
O1
A   23
N1
A   24
O2
A   25
C9
A   26
C6
A   27
C17
A   28
C12
A   29
C15
A   30
C14
A   31
N2
M  END
>  <InstanceId>  (18) 
1LHD_DI2_H_400

>  <ChemCompId>  (18) 
DI2

>  <PdbId>  (18) 
1LHD

>  <ChainId>  (18) 
H

>  <ResidueNumber>  (18) 
400

>  <InsertionCode>  (18) 


>  <Model>  (18) 
1

>  <AltIds>  (18) 


>  <MissingHeavyAtoms>  (18) 
0

>  <ObservedFormula>  (18) 
C21 N4 O5 B

>  <AsymId>  (18) 
D

>  <SeqNum>  (18) 
400

>  <Name>  (18) 
AC-(D)PHE-PRO-BOROLYS-OH

>  <SystematicName>  (18) 
[(1R)-1-[[(2S)-1-[(2R)-2-acetamido-3-phenyl-propanoyl]pyrrolidin-2-yl]carbonylamino]-5-amino-pentyl]boronic acid

>  <Synonyms>  (18) 


>  <Type>  (18) 
NON-POLYMER

>  <Formula>  (18) 
C21 H33 B N4 O5

>  <MolecularWeight>  (18) 
432.322

>  <ModifiedDate>  (18) 
2011-06-04

>  <Parent>  (18) 


>  <OneLetterCode>  (18) 


>  <SubcomponentList>  (18) 


>  <AmbiguousFlag>  (18) 
N

>  <InChI>  (18) 
null

>  <InChIKey>  (18) 
null

>  <SMILES>  (18) 
B([C@H](CCCCN)NC(=O)[C@@H]1CCCN1C(=O)[C@@H](Cc2ccccc2)NC(=O)C)(O)O

>  <pKI>  (18) 
9.62

>  <ChemblID>  (18) 
CHEMBL100109

>  <standardized_canonical_smiles>  (18) 
CC(=O)N[C@H](Cc1ccccc1)C(=O)N1CCC[C@H]1C(=O)N[C@@H](CCCCN)B(O)O

$$$$
1K21_IGN_H_999
     RDKit          3D

 31 32  0  0  0  0  0  0  0  0999 V2000
   16.1560  -11.6220   20.2070 C   0  0  0  0  0  0  0  0  0  0  0  0
   15.4510  -12.5640   19.8270 O   0  0  0  0  0  0  0  0  0  0  0  0
   15.6340  -10.3970   20.3990 N   0  0  0  0  0  0  0  0  0  0  0  0
   14.2220  -10.0260   20.1930 C   0  0  0  0  0  0  0  0  0  0  0  0
   13.4950   -9.7650   21.5200 C   0  0  0  0  0  0  0  0  0  0  0  0
   12.0090  -10.0930   21.4210 C   0  0  0  0  0  0  0  0  0  0  0  0
   11.6090  -11.1220   22.3900 N   0  0  0  0  0  0  0  0  0  0  0  0
   11.0030  -10.8830   23.6710 C   0  0  0  0  0  0  0  0  0  0  0  0
   10.6870  -11.9160   24.4420 N   0  0  0  0  0  0  0  0  0  0  0  0
   10.7580   -9.6370   24.0780 N   0  0  0  0  0  0  0  0  0  0  0  0
   17.9500  -13.2540   21.0630 N   0  0  0  0  0  0  0  0  0  0  0  0
   17.6790  -11.8530   20.4870 C   0  0  0  0  0  0  0  0  0  0  0  0
   18.4230  -11.6090   19.1400 C   0  0  0  0  0  0  0  0  0  0  0  0
   19.8990  -12.0490   19.1810 C   0  0  0  0  0  0  0  0  0  0  0  0
   20.0010  -13.5800   19.4210 C   0  0  0  0  0  0  0  0  0  0  0  0
   18.8870  -14.1930   20.3230 C   0  0  0  0  0  0  0  0  0  0  0  0
   16.5740  -12.9000   22.8600 O   0  0  0  0  0  0  0  0  0  0  0  0
   17.3450  -13.6610   22.2510 C   0  0  0  0  0  0  0  0  0  0  0  0
   17.5520  -15.0700   22.9300 C   0  0  0  0  0  0  0  0  0  0  0  0
   17.9260  -15.0000   24.4670 C   0  0  0  0  0  0  0  0  0  0  0  0
   20.4370  -14.8210   23.5540 C   0  0  0  0  0  0  0  0  0  0  0  0
   19.4520  -14.7400   24.8050 C   0  0  0  0  0  0  0  0  0  0  0  0
   19.7200  -13.3720   25.5260 C   0  0  0  0  0  0  0  0  0  0  0  0
   21.2120  -13.2650   25.9910 C   0  0  0  0  0  0  0  0  0  0  0  0
   22.1600  -13.3700   24.7530 C   0  0  0  0  0  0  0  0  0  0  0  0
   21.9280  -14.7230   24.0130 C   0  0  0  0  0  0  0  0  0  0  0  0
   16.2730  -15.8300   22.8380 N   0  0  0  0  0  0  0  0  0  0  0  0
   15.6600  -16.2720   21.5460 C   0  0  0  0  0  0  0  0  0  0  0  0
   14.2430  -16.7860   21.7690 C   0  0  0  0  0  0  0  0  0  0  0  0
   13.8040  -16.9480   22.9320 O   0  0  0  0  0  0  0  0  0  0  0  0
   13.5190  -17.0470   20.7800 O   0  0  0  0  0  0  0  0  0  0  0  0
  2  1  2  0
  3  1  1  0
 12  1  1  0
  4  3  1  0
  5  4  1  0
  6  5  1  0
  7  6  1  0
  8  7  1  0
  9  8  2  0
 10  8  1  0
 12 11  1  0
 16 11  1  0
 18 11  1  0
 13 12  1  0
 14 13  1  0
 15 14  1  0
 16 15  1  0
 18 17  2  0
 19 18  1  0
 20 19  1  0
 27 19  1  0
 22 20  1  0
 22 21  1  0
 26 21  1  0
 23 22  1  0
 24 23  1  0
 25 24  1  0
 26 25  1  0
 28 27  1  0
 29 28  1  0
 30 29  2  0
 31 29  1  0
A    1
C1
A    2
O2
A    3
N3
A    4
C4
A    5
C5
A    6
C6
A    7
N7
A    8
C8
A    9
N9
A   10
N10
A   11
N11
A   12
C12
A   13
C13
A   14
C14
A   15
C15
A   16
C16
A   17
O31
A   18
C32
A   19
C33
A   20
C34
A   21
C51
A   22
C52
A   23
C53
A   24
C54
A   25
C55
A   26
C56
A   27
N21
A   28
C22
A   29
C23
A   30
O24
A   31
O25
M  END
>  <Id>  (19) 
1K21_IGN_H_999

>  <ChainId>  (19) 
H

>  <AsymId>  (19) 
H

>  <SeqNum>  (19) 
999

>  <Name>  (19) 
{[(1R)-2-((2S)-2-{[(3-{[AMINO(IMINO)METHYL]AMINO}PROPYL)AMINO]CARBONYL}PIPERIDINYL)-1-(CYCLOHEXYLMETHYL)-2-OXOETHYL]AMINO}ACETIC ACID

>  <SystematicName>  (19) 
2-[[(2R)-1-[(2S)-2-(3-carbamimidamidopropylcarbamoyl)piperidin-1-yl]-3-cyclohexyl-1-oxo-propan-2-yl]amino]ethanoic acid

>  <Synonyms>  (19) 
INOGATRAN (ASTRA-ZENECA)

>  <Type>  (19) 
NON-POLYMER

>  <Formula>  (19) 
C21 H38 N6 O4

>  <ObservedFormula>  (19) 
C21 N6 O4

>  <MolecularWeight>  (19) 
438.564

>  <ModifiedDate>  (19) 
2011-06-04

>  <Parent>  (19) 


>  <OneLetterCode>  (19) 


>  <SubcomponentList>  (19) 


>  <AmbiguousFlag>  (19) 
N

>  <InsertionCode>  (19) 


>  <InstanceId>  (19) 
1K21_IGN_H_999

>  <ChemCompId>  (19) 
IGN

>  <PdbId>  (19) 
1K21

>  <ResidueNumber>  (19) 
999

>  <InChI>  (19) 
InChI=1S/C21H38N6O4/c22-21(23)25-11-6-10-24-19(30)17-9-4-5-12-27(17)20(31)16(26-14-18(28)29)13-15-7-2-1-3-8-15/h15-17,26H,1-14H2,(H,24,30)(H,28,29)(H4,22,23,25)/t16-,17+/m1/s1

>  <InChIKey>  (19) 
CDPROXZBMHOBTQ-SJORKVTESA-N

>  <SMILES>  (19) 
C1CCC(CC1)C[C@H](C(=O)N2CCCC[C@H]2C(=O)NCCCNC(=N)N)NCC(=O)O

>  <MissingHeavyAtoms>  (19) 
0

>  <Model>  (19) 
1

>  <AltIds>  (19) 


>  <pKI>  (19) 
7.82

>  <ChemblID>  (19) 
CHEMBL299617

>  <standardized_canonical_smiles>  (19) 
N=C(N)NCCCNC(=O)[C@@H]1CCCCN1C(=O)C(CC1CCCCC1)NCC(=O)O

$$$$
1NM6_L86_A_247
     RDKit          3D

 36 39  0  0  0  0  0  0  0  0999 V2000
   19.7500  -14.6900   25.8430 C   0  0  0  0  0  0  0  0  0  0  0  0
   19.8720  -16.0970   25.4690 C   0  0  0  0  0  0  0  0  0  0  0  0
   21.1040  -16.6450   24.8970 C   0  0  0  0  0  0  0  0  0  0  0  0
   22.2150  -15.7450   24.6160 C   0  0  0  0  0  0  0  0  0  0  0  0
   22.0730  -14.3280   24.9530 C   0  0  0  0  0  0  0  0  0  0  0  0
   20.8640  -13.7860   25.5750 C   0  0  0  0  0  0  0  0  0  0  0  0
   18.6660  -17.0280   25.5720 C   0  0  0  0  0  0  0  0  0  0  0  0
   18.1190  -17.3620   24.1480 C   0  0  0  0  0  0  0  0  0  0  0  0
   17.4830  -16.1590   23.5540 N   0  0  0  0  0  0  0  0  0  0  0  0
   18.1680  -15.4220   22.5500 C   0  0  0  0  0  0  0  0  0  0  0  0
   17.6550  -14.1290   22.0720 C   0  0  0  0  0  0  0  0  0  0  0  0
   18.4010  -13.4040   21.1440 N   0  0  0  0  0  0  0  0  0  0  0  0
   19.7030  -13.7840   20.6150 C   0  0  0  0  0  0  0  0  0  0  0  0
   20.1550  -15.0150   21.1180 C   0  0  0  0  0  0  0  0  0  0  0  0
   19.4310  -15.7840   22.0220 N   0  0  0  0  0  0  0  0  0  0  0  0
   16.5820  -13.7110   22.5080 O   0  0  0  0  0  0  0  0  0  0  0  0
   20.5490  -12.9380   19.4210 Cl  0  0  0  0  0  0  0  0  0  0  0  0
   17.8220  -12.1540   20.6190 C   0  0  0  0  0  0  0  0  0  0  0  0
   16.4000  -12.3880   20.1360 C   0  0  0  0  0  0  0  0  0  0  0  0
   15.5600  -11.3670   20.3840 N   0  0  0  0  0  0  0  0  0  0  0  0
   16.1010  -13.4250   19.5430 O   0  0  0  0  0  0  0  0  0  0  0  0
   14.1190  -11.5080   20.0730 C   0  0  0  0  0  0  0  0  0  0  0  0
   13.2220  -11.4900   21.3090 C   0  0  0  0  0  0  0  0  0  0  0  0
   12.3980  -12.6360   21.6430 C   0  0  0  0  0  0  0  0  0  0  0  0
   11.5260  -12.6240   22.7980 C   0  0  0  0  0  0  0  0  0  0  0  0
   11.4830  -11.4190   23.6050 C   0  0  0  0  0  0  0  0  0  0  0  0
   13.1860  -10.2860   22.1300 C   0  0  0  0  0  0  0  0  0  0  0  0
   12.4100  -13.8930   20.7730 C   0  0  0  0  0  0  0  0  0  0  0  0
   12.3020  -10.2670   23.2760 C   0  0  0  0  0  0  0  0  0  0  0  0
   13.6320  -14.7580   21.1300 C   0  0  0  0  0  0  0  0  0  0  0  0
   17.0410  -18.4520   24.2150 C   0  0  0  0  0  0  0  0  0  0  0  0
   16.6590  -19.0130   22.8870 N   0  0  0  0  0  0  0  0  0  0  0  0
   13.6570  -15.9310   20.2380 N   0  0  0  0  0  0  0  0  0  0  0  0
   14.9430  -16.6860   20.2790 C   0  0  0  0  0  0  0  0  0  0  0  0
   15.1150  -17.4590   21.6010 C   0  0  0  0  0  0  0  0  0  0  0  0
   16.4310  -18.2960   21.6030 C   0  0  0  0  0  0  0  0  0  0  0  0
  2  1  2  0
  6  1  1  0
  3  2  1  0
  7  2  1  0
  4  3  2  0
  5  4  1  0
  6  5  2  0
  8  7  1  0
  9  8  1  0
 31  8  1  0
 10  9  1  0
 11 10  1  0
 15 10  2  0
 12 11  1  0
 16 11  2  0
 13 12  1  0
 18 12  1  0
 14 13  2  0
 17 13  1  0
 15 14  1  0
 19 18  1  0
 20 19  1  0
 21 19  2  0
 22 20  1  0
 23 22  1  0
 24 23  2  0
 27 23  1  0
 25 24  1  0
 28 24  1  0
 26 25  2  0
 29 26  1  0
 29 27  2  0
 30 28  1  0
 33 30  1  0
 32 31  1  0
 36 32  1  0
 34 33  1  0
 35 34  1  0
 36 35  1  0
A    1
C8
A    2
C2
A    3
C10
A    4
C4
A    5
C5
A    6
C6
A    7
C11
A    8
C1
A    9
N18
A   10
C21
A   11
C22
A   12
N23
A   13
C24
A   14
C25
A   15
N3
A   16
O28
A   17
CL2
A   18
C33
A   19
C34
A   20
N37
A   21
O38
A   22
C39
A   23
C40
A   24
C43
A   25
C44
A   26
C45
A   27
C15
A   28
C9
A   29
C50
A   30
C3
A   31
C7
A   32
N2
A   33
N5
A   34
C12
A   35
C13
A   36
C14
M  END
>  <Id>  (20) 
1NM6_L86_A_247

>  <ChainId>  (20) 
A

>  <AsymId>  (20) 
C

>  <SeqNum>  (20) 
247

>  <Name>  (20) 
(11S)-11-BENZYL-6-CHLORO-1,2,10,11,12,13,14,15,16,17,18,19-DODECAHYDRO-5,9-METHANO-2,5,8,10,13,17-BENZOHEXAAZACYCLOHENICOSINE-3,24-DIONE

>  <SystematicName>  (20) 
null

>  <Synonyms>  (20) 
COMPOUND 31

>  <Type>  (20) 
NON-POLYMER

>  <Formula>  (20) 
C27 H33 Cl N6 O2

>  <ObservedFormula>  (20) 
C27 Cl N6 O2

>  <MolecularWeight>  (20) 
509.043

>  <ModifiedDate>  (20) 
2011-06-04

>  <Parent>  (20) 


>  <OneLetterCode>  (20) 


>  <SubcomponentList>  (20) 


>  <AmbiguousFlag>  (20) 
N

>  <InsertionCode>  (20) 


>  <InstanceId>  (20) 
1NM6_L86_A_247

>  <ChemCompId>  (20) 
L86

>  <PdbId>  (20) 
1NM6

>  <ResidueNumber>  (20) 
247

>  <InChI>  (20) 
InChI=1S/C27H33ClN6O2/c28-24-18-32-26-27(36)34(24)19-25(35)31-16-22-10-5-4-9-21(22)11-14-29-12-6-13-30-17-23(33-26)15-20-7-2-1-3-8-20/h1-5,7-10,18,23,29-30H,6,11-17,19H2,(H,31,35)(H,32,33)/t23-/m0/s1

>  <InChIKey>  (20) 
LYVSCNRRXJZCRV-QHCPKHFHSA-N

>  <SMILES>  (20) 
c1ccc(cc1)C[C@H]2CNCCCNCCc3ccccc3CNC(=O)CN4C(=CN=C(C4=O)N2)Cl

>  <MissingHeavyAtoms>  (20) 
0

>  <Model>  (20) 
1

>  <AltIds>  (20) 


>  <pKI>  (20) 
10.05

>  <ChemblID>  (20) 
CHEMBL327421

>  <standardized_canonical_smiles>  (20) 
O=C1Cn2c(Cl)cnc(c2=O)N[C@@H](Cc2ccccc2)CNCCCNCCc2ccccc2CN1

$$$$
1NT1_T76_A_247
     RDKit          3D

 35 38  0  0  0  0  0  0  0  0999 V2000
   13.3050  -11.3460   21.9390 C   0  0  0  0  0  0  0  0  0  0  0  0
   12.6100  -12.4750   22.3290 C   0  0  0  0  0  0  0  0  0  0  0  0
   11.6610  -12.4160   23.3870 C   0  0  0  0  0  0  0  0  0  0  0  0
   11.4900  -11.2300   24.1020 C   0  0  0  0  0  0  0  0  0  0  0  0
   12.2810  -10.1200   23.7820 C   0  0  0  0  0  0  0  0  0  0  0  0
   13.1730  -10.1610   22.6800 C   0  0  0  0  0  0  0  0  0  0  0  0
   14.1440  -11.3850   20.6840 C   0  0  0  0  0  0  0  0  0  0  0  0
   15.5830  -11.5230   20.9480 N   0  0  0  0  0  0  0  0  0  0  0  0
   16.1920  -12.7050   20.6640 C   0  0  0  0  0  0  0  0  0  0  0  0
   17.6880  -12.7240   20.8980 C   0  0  0  0  0  0  0  0  0  0  0  0
   15.6200  -13.7450   20.3220 O   0  0  0  0  0  0  0  0  0  0  0  0
   12.9140  -13.6870   21.7050 O   0  0  0  0  0  0  0  0  0  0  0  0
   18.4400  -12.8770   19.5630 C   0  0  0  0  0  0  0  0  0  0  0  0
   19.7640  -13.5550   19.9390 C   0  0  0  0  0  0  0  0  0  0  0  0
   19.2630  -14.5920   20.9510 C   0  0  0  0  0  0  0  0  0  0  0  0
   18.1110  -13.9590   21.5710 N   0  0  0  0  0  0  0  0  0  0  0  0
   17.4450  -14.3920   22.6690 C   0  0  0  0  0  0  0  0  0  0  0  0
   17.9410  -15.7110   23.2370 C   0  0  0  0  0  0  0  0  0  0  0  0
   16.8250  -16.6570   23.2880 N   0  0  0  0  0  0  0  0  0  0  0  0
   16.6220  -17.3810   22.1570 C   0  0  0  0  0  0  0  0  0  0  0  0
   17.4440  -17.4820   21.2250 O   0  0  0  0  0  0  0  0  0  0  0  0
   15.2330  -17.9950   22.0630 C   0  0  0  0  0  0  0  0  0  0  0  0
   14.4690  -17.3110   20.9130 C   0  0  0  0  0  0  0  0  0  0  0  0
   13.9290  -15.9920   21.3100 N   0  0  0  0  0  0  0  0  0  0  0  0
   12.7000  -16.0430   21.8690 C   0  0  0  0  0  0  0  0  0  0  0  0
   12.0520  -17.0770   22.0300 O   0  0  0  0  0  0  0  0  0  0  0  0
   12.1630  -14.7150   22.3090 C   0  0  0  0  0  0  0  0  0  0  0  0
   16.4310  -13.8520   23.1320 O   0  0  0  0  0  0  0  0  0  0  0  0
   18.5290  -15.4530   24.6390 C   0  0  0  0  0  0  0  0  0  0  0  0
   18.7960  -16.7530   25.4060 C   0  0  0  0  0  0  0  0  0  0  0  0
   19.4010  -16.4530   26.7880 C   0  0  0  0  0  0  0  0  0  0  0  0
   20.6980  -15.6420   26.6280 C   0  0  0  0  0  0  0  0  0  0  0  0
   20.4210  -14.3300   25.8830 C   0  0  0  0  0  0  0  0  0  0  0  0
   19.8080  -14.6210   24.5140 C   0  0  0  0  0  0  0  0  0  0  0  0
   12.1860   -8.7050   24.7850 Cl  0  0  0  0  0  0  0  0  0  0  0  0
  2  1  1  0
  6  1  2  0
  7  1  1  0
  3  2  2  0
 12  2  1  0
  4  3  1  0
  5  4  2  0
  6  5  1  0
 35  5  1  0
  8  7  1  0
  9  8  1  0
 10  9  1  0
 11  9  2  0
 13 10  1  0
 16 10  1  0
 27 12  1  0
 14 13  1  0
 15 14  1  0
 16 15  1  0
 17 16  1  0
 18 17  1  0
 28 17  2  0
 19 18  1  0
 29 18  1  0
 20 19  1  0
 21 20  2  0
 22 20  1  0
 23 22  1  0
 24 23  1  0
 25 24  1  0
 26 25  2  0
 27 25  1  0
 30 29  1  0
 34 29  1  0
 31 30  1  0
 32 31  1  0
 33 32  1  0
 34 33  1  0
A    1
C1
A    2
C2
A    3
C3
A    4
C4
A    5
C5
A    6
C6
A    7
C7
A    8
N8
A    9
C9
A   10
C10
A   11
O11
A   12
O12
A   13
C18
A   14
C19
A   15
C20
A   16
N21
A   17
C29
A   18
C30
A   19
N31
A   20
C32
A   21
O33
A   22
C34
A   23
C35
A   24
N38
A   25
C41
A   26
O42
A   27
C43
A   28
O44
A   29
C45
A   30
C47
A   31
C48
A   32
C49
A   33
C50
A   34
C51
A   35
CL68
M  END
>  <Id>  (21) 
1NT1_T76_A_247

>  <ChainId>  (21) 
A

>  <AsymId>  (21) 
C

>  <SeqNum>  (21) 
247

>  <Name>  (21) 
(6R,21AS)-17-CHLORO-6-CYCLOHEXYL-2,3,6,7,10,11,19,20-OCTAHYDRO-1H,5H-PYRROLO[1,2-K][1,4,8,11,14]BENZOXATETRAAZA-CYCLOHEPTADECINE-5,8,12,21(9H,13H,21AH)-TETRONE

>  <SystematicName>  (21) 
null

>  <Synonyms>  (21) 


>  <Type>  (21) 
NON-POLYMER

>  <Formula>  (21) 
C25 H33 Cl N4 O5

>  <ObservedFormula>  (21) 
C25 Cl N4 O5

>  <MolecularWeight>  (21) 
505.006

>  <ModifiedDate>  (21) 
2011-06-04

>  <Parent>  (21) 


>  <OneLetterCode>  (21) 


>  <SubcomponentList>  (21) 


>  <AmbiguousFlag>  (21) 
N

>  <InsertionCode>  (21) 


>  <InstanceId>  (21) 
1NT1_T76_A_247

>  <ChemCompId>  (21) 
T76

>  <PdbId>  (21) 
1NT1

>  <ResidueNumber>  (21) 
247

>  <InChI>  (21) 
InChI=1S/C25H33ClN4O5/c26-18-8-9-20-17(13-18)14-28-24(33)19-7-4-12-30(19)25(34)23(16-5-2-1-3-6-16)29-21(31)10-11-27-22(32)15-35-20/h8-9,13,16,19,23H,1-7,10-12,14-15H2,(H,27,32)(H,28,33)(H,29,31)/t19-,23+/m0/s1

>  <InChIKey>  (21) 
CNGULIMOMYJRBP-WMZHIEFXSA-N

>  <SMILES>  (21) 
c1cc2c(cc1Cl)CNC(=O)[C@@H]3CCCN3C(=O)[C@H](NC(=O)CCNC(=O)CO2)C4CCCCC4

>  <MissingHeavyAtoms>  (21) 
0

>  <Model>  (21) 
1

>  <AltIds>  (21) 


>  <pKI>  (21) 
8.89

>  <ChemblID>  (21) 
CHEMBL94622

>  <standardized_canonical_smiles>  (21) 
O=C1COc2ccc(Cl)cc2CNC(=O)[C@@H]2CCCN2C(=O)C(C2CCCCC2)NC(=O)CCN1

$$$$
1MUE_CDD_B_248
     RDKit          3D

 32 34  0  0  0  0  0  0  0  0999 V2000
   22.0800  -15.7580   25.0900 C   0  0  0  0  0  0  0  0  0  0  0  0
   20.9530  -16.4530   25.2050 N   0  0  0  0  0  0  0  0  0  0  0  0
   19.8510  -15.8890   25.7250 C   0  0  0  0  0  0  0  0  0  0  0  0
   19.8360  -14.5630   26.1210 C   0  0  0  0  0  0  0  0  0  0  0  0
   20.9710  -13.8180   25.9770 C   0  0  0  0  0  0  0  0  0  0  0  0
   22.1230  -14.4260   25.4800 C   0  0  0  0  0  0  0  0  0  0  0  0
   18.6030  -16.7060   25.9480 C   0  0  0  0  0  0  0  0  0  0  0  0
   17.9180  -17.0720   24.6620 C   0  0  0  0  0  0  0  0  0  0  0  0
   18.9660  -17.8240   26.5990 F   0  0  0  0  0  0  0  0  0  0  0  0
   17.7360  -16.0050   26.7280 F   0  0  0  0  0  0  0  0  0  0  0  0
   17.1580  -15.9350   24.1360 N   0  0  0  0  0  0  0  0  0  0  0  0
   17.9180  -15.2540   23.1780 C   0  0  0  0  0  0  0  0  0  0  0  0
   17.2740  -14.0320   22.4940 C   0  0  0  0  0  0  0  0  0  0  0  0
   18.0090  -13.4450   21.5160 N   0  0  0  0  0  0  0  0  0  0  0  0
   19.3550  -13.9470   21.1720 C   0  0  0  0  0  0  0  0  0  0  0  0
   19.9300  -15.0380   21.9380 C   0  0  0  0  0  0  0  0  0  0  0  0
   19.1980  -15.6190   22.9100 N   0  0  0  0  0  0  0  0  0  0  0  0
   17.5460  -12.2610   20.7780 C   0  0  0  0  0  0  0  0  0  0  0  0
   16.0670  -12.3310   20.4100 C   0  0  0  0  0  0  0  0  0  0  0  0
   15.2870  -11.4840   21.1270 N   0  0  0  0  0  0  0  0  0  0  0  0
   13.8690  -11.4110   20.7680 C   0  0  0  0  0  0  0  0  0  0  0  0
   12.9150  -11.4250   21.9620 C   0  0  0  0  0  0  0  0  0  0  0  0
   12.9000  -10.3750   22.8950 C   0  0  0  0  0  0  0  0  0  0  0  0
   12.0190  -10.4350   24.0000 C   0  0  0  0  0  0  0  0  0  0  0  0
   11.1120  -11.4930   24.1370 C   0  0  0  0  0  0  0  0  0  0  0  0
   11.1250  -12.5320   23.2100 C   0  0  0  0  0  0  0  0  0  0  0  0
   12.0370  -12.4940   22.1420 C   0  0  0  0  0  0  0  0  0  0  0  0
   16.1420  -13.6640   22.8260 O   0  0  0  0  0  0  0  0  0  0  0  0
   20.2420  -13.2370   19.8930 Cl  0  0  0  0  0  0  0  0  0  0  0  0
   15.6570  -13.1090   19.5420 O   0  0  0  0  0  0  0  0  0  0  0  0
   12.1890  -13.5200   21.2880 F   0  0  0  0  0  0  0  0  0  0  0  0
   20.9520  -17.7700   24.8070 O   0  0  0  0  0  0  0  0  0  0  0  0
  2  1  2  0
  6  1  1  0
  3  2  1  0
 32  2  1  0
  4  3  2  0
  7  3  1  0
  5  4  1  0
  6  5  2  0
  8  7  1  0
  9  7  1  0
 10  7  1  0
 11  8  1  0
 12 11  1  0
 13 12  1  0
 17 12  2  0
 14 13  1  0
 28 13  2  0
 15 14  1  0
 18 14  1  0
 16 15  2  0
 29 15  1  0
 17 16  1  0
 19 18  1  0
 20 19  1  0
 30 19  2  0
 21 20  1  0
 22 21  1  0
 23 22  2  0
 27 22  1  0
 24 23  1  0
 25 24  2  0
 26 25  1  0
 27 26  2  0
 31 27  1  0
M  CHG  2   2   1  32  -1
A    1
C1
A    2
N2
A    3
C3
A    4
C4
A    5
C5
A    6
C6
A    7
C11
A    8
C12
A    9
F13
A   10
F14
A   11
N15
A   12
C18
A   13
C19
A   14
N20
A   15
C21
A   16
C22
A   17
N23
A   18
C24
A   19
C25
A   20
N28
A   21
C29
A   22
C30
A   23
C33
A   24
C34
A   25
C35
A   26
C2
A   27
C37
A   28
O42
A   29
CL43
A   30
O44
A   31
F1
A   32
O1
M  END
>  <Id>  (22) 
1MUE_CDD_B_248

>  <ChainId>  (22) 
B

>  <AsymId>  (22) 
D

>  <SeqNum>  (22) 
248

>  <Name>  (22) 
2-(6-CHLORO-3-{[2,2-DIFLUORO-2-(1-OXIDO-2-PYRIDINYL)ETHYL]AMINO}-2-OXO-1(2H)-PYRAZINYL)-N-[(2-FLUOROPHENYL)METHYL]ACETAMIDE

>  <SystematicName>  (22) 
2-[6-chloro-3-[[2,2-difluoro-2-(1-oxidopyridin-1-ium-2-yl)ethyl]amino]-2-oxo-pyrazin-1-yl]-N-[(2-fluorophenyl)methyl]ethanamide

>  <Synonyms>  (22) 


>  <Type>  (22) 
NON-POLYMER

>  <Formula>  (22) 
C20 H17 Cl F3 N5 O3

>  <ObservedFormula>  (22) 
C20 F3 Cl N5 O3

>  <MolecularWeight>  (22) 
467.829

>  <ModifiedDate>  (22) 
2011-06-04

>  <Parent>  (22) 


>  <OneLetterCode>  (22) 


>  <SubcomponentList>  (22) 


>  <AmbiguousFlag>  (22) 
N

>  <InsertionCode>  (22) 


>  <InstanceId>  (22) 
1MUE_CDD_B_248

>  <ChemCompId>  (22) 
CDD

>  <PdbId>  (22) 
1MUE

>  <ResidueNumber>  (22) 
248

>  <InChI>  (22) 
InChI=1S/C20H17ClF3N5O3/c21-16-10-26-18(27-12-20(23,24)15-7-3-4-8-29(15)32)19(31)28(16)11-17(30)25-9-13-5-1-2-6-14(13)22/h1-8,10H,9,11-12H2,(H,25,30)(H,26,27)

>  <InChIKey>  (22) 
ZIGSBBKEPNQXRG-UHFFFAOYSA-N

>  <SMILES>  (22) 
c1ccc(c(c1)CNC(=O)CN2C(=CN=C(C2=O)NCC(c3cccc[n+]3[O-])(F)F)Cl)F

>  <MissingHeavyAtoms>  (22) 
0

>  <Model>  (22) 
1

>  <AltIds>  (22) 


>  <pKI>  (22) 
8.64

>  <ChemblID>  (22) 
CHEMBL282837

>  <standardized_canonical_smiles>  (22) 
O=C(Cn1c(Cl)cnc(NCC(F)(F)c2cccc[n+]2[O-])c1=O)NCc1ccccc1F

$$$$
1T4U_81A_H_4815
     RDKit          3D

 32 34  0  0  0  0  0  0  0  0999 V2000
   20.8060  -18.3690   24.3070 S   0  0  0  0  0  0  0  0  0  0  0  0
   22.0930  -18.9010   24.0020 O   0  0  0  0  0  0  0  0  0  0  0  0
   19.8800  -18.3490   23.2190 O   0  0  0  0  0  0  0  0  0  0  0  0
   20.1190  -19.3050   25.6580 C   0  0  0  0  0  0  0  0  0  0  0  0
   20.0620  -15.8980   25.3860 C   0  0  0  0  0  0  0  0  0  0  0  0
   20.3860  -14.6730   25.9680 C   0  0  0  0  0  0  0  0  0  0  0  0
   21.7020  -14.3640   26.2970 C   0  0  0  0  0  0  0  0  0  0  0  0
   22.7070  -15.2910   26.0230 C   0  0  0  0  0  0  0  0  0  0  0  0
   22.4180  -16.5200   25.4340 C   0  0  0  0  0  0  0  0  0  0  0  0
   21.1130  -16.8210   25.1050 C   0  0  0  0  0  0  0  0  0  0  0  0
   18.5860  -13.4150   21.1850 C   0  0  0  0  0  0  0  0  0  0  0  0
   19.6710  -12.7410   20.4140 C   0  0  0  0  0  0  0  0  0  0  0  0
   17.8740  -15.2080   22.6450 C   0  0  0  0  0  0  0  0  0  0  0  0
   18.8760  -14.5710   21.8950 C   0  0  0  0  0  0  0  0  0  0  0  0
   17.2770  -12.8710   21.2080 C   0  0  0  0  0  0  0  0  0  0  0  0
   16.5670  -14.6730   22.6700 C   0  0  0  0  0  0  0  0  0  0  0  0
   16.2600  -13.5000   21.9690 C   0  0  0  0  0  0  0  0  0  0  0  0
   18.1620  -16.3570   23.3680 O   0  0  0  0  0  0  0  0  0  0  0  0
   18.2960  -16.2850   24.9500 S   0  0  0  0  0  0  0  0  0  0  0  0
   17.7260  -17.4820   25.5210 O   0  0  0  0  0  0  0  0  0  0  0  0
   17.5650  -15.1600   25.4690 O   0  0  0  0  0  0  0  0  0  0  0  0
   14.9620  -12.9920   22.0450 O   0  0  0  0  0  0  0  0  0  0  0  0
   14.4540  -12.4310   20.8020 C   0  0  0  0  0  0  0  0  0  0  0  0
   13.1900  -11.5830   21.0440 C   0  0  0  0  0  0  0  0  0  0  0  0
   11.7690  -12.1240   20.7230 C   0  0  0  0  0  0  0  0  0  0  0  0
   12.4070  -11.0270   19.8410 C   0  0  0  0  0  0  0  0  0  0  0  0
   13.1300  -10.6710   22.2580 C   0  0  0  0  0  0  0  0  0  0  0  0
   13.2200  -11.2710   23.5400 O   0  0  0  0  0  0  0  0  0  0  0  0
   12.3740  -12.2200   23.7040 N   0  0  0  0  0  0  0  0  0  0  0  0
   11.2800  -12.0160   24.4180 C   0  0  0  0  0  0  0  0  0  0  0  0
   10.3770  -12.9440   24.5240 N   0  0  0  0  0  0  0  0  0  0  0  0
   11.1140  -10.8480   25.0620 N   0  0  0  0  0  0  0  0  0  0  0  0
  2  1  2  0
  3  1  2  0
  4  1  1  0
 10  1  1  0
  6  5  2  0
 10  5  1  0
 19  5  1  0
  7  6  1  0
  8  7  2  0
  9  8  1  0
 10  9  2  0
 12 11  1  0
 14 11  2  0
 15 11  1  0
 14 13  1  0
 16 13  2  0
 18 13  1  0
 17 15  2  0
 17 16  1  0
 22 17  1  0
 19 18  1  0
 20 19  2  0
 21 19  2  0
 23 22  1  0
 24 23  1  0
 25 24  1  0
 26 24  1  0
 27 24  1  0
 26 25  1  0
 28 27  1  0
 29 28  1  0
 30 29  1  0
 31 30  2  0
 32 30  1  0
A    1
S
A    2
O4
A    3
O5
A    4
C16
A    5
C26
A    6
C25
A    7
C24
A    8
C23
A    9
C28
A   10
C27
A   11
C2
A   12
C2A
A   13
C6
A   14
C1
A   15
C3
A   16
C5
A   17
C4
A   18
O8
A   19
S20
A   20
O21
A   21
O22
A   22
O7
A   23
C10
A   24
C14
A   25
CEA
A   26
CEB
A   27
C15
A   28
O16
A   29
N10
A   30
C17
A   31
N11
A   32
N12
M  END
>  <Id>  (23) 
1T4U_81A_H_4815

>  <ChainId>  (23) 
H

>  <AsymId>  (23) 
D

>  <SeqNum>  (23) 
4815

>  <Name>  (23) 
2-METHANESULFONYL-BENZENESULFONIC ACID 3-METHYL-5-((1-AMIDINOAMINOOXYMETHYL-CYCLOPROPYL)METHYLOXY)-PHENYLESTER

>  <SystematicName>  (23) 
[3-[[1-(carbamimidamidooxymethyl)cyclopropyl]methoxy]-5-methyl-phenyl] 2-methylsulfonylbenzenesulfonate

>  <Synonyms>  (23) 


>  <Type>  (23) 
NON-POLYMER

>  <Formula>  (23) 
C20 H25 N3 O7 S2

>  <ObservedFormula>  (23) 
S2 C20 N3 O7

>  <MolecularWeight>  (23) 
483.558

>  <ModifiedDate>  (23) 
2011-06-04

>  <Parent>  (23) 


>  <OneLetterCode>  (23) 


>  <SubcomponentList>  (23) 


>  <AmbiguousFlag>  (23) 
N

>  <InsertionCode>  (23) 


>  <InstanceId>  (23) 
1T4U_81A_H_4815

>  <ChemCompId>  (23) 
81A

>  <PdbId>  (23) 
1T4U

>  <ResidueNumber>  (23) 
4815

>  <InChI>  (23) 
InChI=1S/C20H25N3O7S2/c1-14-9-15(28-12-20(7-8-20)13-29-23-19(21)22)11-16(10-14)30-32(26,27)18-6-4-3-5-17(18)31(2,24)25/h3-6,9-11H,7-8,12-13H2,1-2H3,(H4,21,22,23)

>  <InChIKey>  (23) 
FXPLUZROHGTSCH-UHFFFAOYSA-N

>  <SMILES>  (23) 
[H]/N=C(\N)/NOCC1(CC1)COc2cc(cc(c2)OS(=O)(=O)c3ccccc3S(=O)(=O)C)C

>  <MissingHeavyAtoms>  (23) 
0

>  <Model>  (23) 
1

>  <AltIds>  (23) 


>  <pKI>  (23) 
8.11

>  <ChemblID>  (23) 
CHEMBL36040

>  <standardized_canonical_smiles>  (23) 
Cc1cc(OCC2(CON=C(N)N)CC2)cc(OS(=O)(=O)c2ccccc2S(C)(=O)=O)c1

$$$$
1TA2_176_A_401
     RDKit          3D

 34 37  0  0  0  0  0  0  0  0999 V2000
   20.2020  -15.8250   24.1330 C   0  0  0  0  0  0  0  0  0  0  0  0
   21.4950  -15.3760   24.3010 C   0  0  0  0  0  0  0  0  0  0  0  0
   21.8120  -14.5240   25.3310 C   0  0  0  0  0  0  0  0  0  0  0  0
   20.8240  -14.1130   26.1900 C   0  0  0  0  0  0  0  0  0  0  0  0
   19.5340  -14.5620   26.0220 C   0  0  0  0  0  0  0  0  0  0  0  0
   19.2120  -15.4260   24.9960 C   0  0  0  0  0  0  0  0  0  0  0  0
   17.7760  -15.9630   24.8830 C   0  0  0  0  0  0  0  0  0  0  0  0
   17.1550  -16.1010   23.4550 C   0  0  0  0  0  0  0  0  0  0  0  0
   16.8700  -14.7370   22.8670 C   0  0  0  0  0  0  0  0  0  0  0  0
   15.9140  -14.0630   23.2910 O   0  0  0  0  0  0  0  0  0  0  0  0
   15.8660  -16.7580   23.5030 N   0  0  0  0  0  0  0  0  0  0  0  0
   17.6640  -17.2060   25.7530 C   0  0  0  0  0  0  0  0  0  0  0  0
   17.8350  -18.4740   25.2130 C   0  0  0  0  0  0  0  0  0  0  0  0
   17.7410  -19.5790   26.0350 C   0  0  0  0  0  0  0  0  0  0  0  0
   17.4820  -19.4190   27.3820 C   0  0  0  0  0  0  0  0  0  0  0  0
   17.3150  -18.1500   27.9110 C   0  0  0  0  0  0  0  0  0  0  0  0
   17.4020  -17.0370   27.1040 C   0  0  0  0  0  0  0  0  0  0  0  0
   17.6840  -14.2690   21.9030 N   0  0  0  0  0  0  0  0  0  0  0  0
   17.4520  -13.0160   21.1990 C   0  0  0  0  0  0  0  0  0  0  0  0
   16.0260  -12.8260   20.6590 C   0  0  0  0  0  0  0  0  0  0  0  0
   15.6730  -13.4810   19.6730 O   0  0  0  0  0  0  0  0  0  0  0  0
   18.5290  -13.0280   20.1110 C   0  0  0  0  0  0  0  0  0  0  0  0
   19.6380  -13.8030   20.7460 C   0  0  0  0  0  0  0  0  0  0  0  0
   18.8430  -14.9480   21.3240 C   0  0  0  0  0  0  0  0  0  0  0  0
   15.2430  -11.8970   21.2410 N   0  0  0  0  0  0  0  0  0  0  0  0
   13.8920  -11.6010   20.8080 C   0  0  0  0  0  0  0  0  0  0  0  0
   12.9150  -11.5570   21.9770 C   0  0  0  0  0  0  0  0  0  0  0  0
   12.0460  -12.5690   22.2790 C   0  0  0  0  0  0  0  0  0  0  0  0
   11.1370  -12.5980   23.3220 C   0  0  0  0  0  0  0  0  0  0  0  0
   11.0810  -11.5020   24.1630 C   0  0  0  0  0  0  0  0  0  0  0  0
   11.9440  -10.4620   23.8820 C   0  0  0  0  0  0  0  0  0  0  0  0
   12.8300  -10.4940   22.8240 C   0  0  0  0  0  0  0  0  0  0  0  0
   12.0890  -13.8950   21.2070 Cl  0  0  0  0  0  0  0  0  0  0  0  0
   11.9280   -9.0600   24.8550 Cl  0  0  0  0  0  0  0  0  0  0  0  0
  2  1  2  0
  6  1  1  0
  3  2  1  0
  4  3  2  0
  5  4  1  0
  6  5  2  0
  7  6  1  0
  8  7  1  0
 12  7  1  0
  9  8  1  0
 11  8  1  0
 10  9  2  0
 18  9  1  0
 13 12  2  0
 17 12  1  0
 14 13  1  0
 15 14  2  0
 16 15  1  0
 17 16  2  0
 19 18  1  0
 24 18  1  0
 20 19  1  0
 22 19  1  0
 21 20  2  0
 25 20  1  0
 23 22  1  0
 24 23  1  0
 26 25  1  0
 27 26  1  0
 28 27  2  0
 32 27  1  0
 29 28  1  0
 33 28  1  0
 30 29  2  0
 31 30  1  0
 32 31  2  0
 34 31  1  0
A    1
CD1
A    2
CE1
A    3
CZ1
A    4
CE2
A    5
CD2
A    6
CG1
A    7
CB0
A    8
CA0
A    9
C0
A   10
O0
A   11
N0
A   12
CG2
A   13
CD3
A   14
CE3
A   15
CZ2
A   16
CE4
A   17
CD4
A   18
N
A   19
CA
A   20
C
A   21
O
A   22
CB
A   23
CG
A   24
CD
A   25
N'
A   26
CA'
A   27
CB'
A   28
CG'
A   29
CD'
A   30
CE'
A   31
CDB
A   32
CGB
A   33
CL1
A   34
CL2
M  END
>  <Id>  (24) 
1TA2_176_A_401

>  <ChainId>  (24) 
A

>  <AsymId>  (24) 
C

>  <SeqNum>  (24) 
401

>  <Name>  (24) 
1-(2-AMINO-3,3-DIPHENYL-PROPIONYL)-PYRROLIDINE-3-CARBOXYLIC ACID 2,5-DICHLORO-BENZYLAMIDE

>  <SystematicName>  (24) 
(2S)-1-[(2R)-2-azanyl-3,3-diphenyl-propanoyl]-N-[(2,5-dichlorophenyl)methyl]pyrrolidine-2-carboxamide

>  <Synonyms>  (24) 


>  <Type>  (24) 
peptide-like

>  <Formula>  (24) 
C27 H27 Cl2 N3 O2

>  <ObservedFormula>  (24) 
C27 Cl2 N3 O2

>  <MolecularWeight>  (24) 
496.428

>  <ModifiedDate>  (24) 
2011-06-04

>  <Parent>  (24) 


>  <OneLetterCode>  (24) 


>  <SubcomponentList>  (24) 
00O PRO 01V

>  <AmbiguousFlag>  (24) 
N

>  <InsertionCode>  (24) 


>  <InstanceId>  (24) 
1TA2_176_A_401

>  <ChemCompId>  (24) 
176

>  <PdbId>  (24) 
1TA2

>  <ResidueNumber>  (24) 
401

>  <InChI>  (24) 
InChI=1S/C27H27Cl2N3O2/c28-21-13-14-22(29)20(16-21)17-31-26(33)23-12-7-15-32(23)27(34)25(30)24(18-8-3-1-4-9-18)19-10-5-2-6-11-19/h1-6,8-11,13-14,16,23-25H,7,12,15,17,30H2,(H,31,33)/t23-,25+/m0/s1

>  <InChIKey>  (24) 
VTUWWZYFAXSACB-UKILVPOCSA-N

>  <SMILES>  (24) 
c1ccc(cc1)C(c2ccccc2)[C@H](C(=O)N3CCC[C@H]3C(=O)NCc4cc(ccc4Cl)Cl)N

>  <MissingHeavyAtoms>  (24) 
0

>  <Model>  (24) 
1

>  <AltIds>  (24) 


>  <pKI>  (24) 
8.52

>  <ChemblID>  (24) 
CHEMBL103581

>  <standardized_canonical_smiles>  (24) 
N[C@@H](C(=O)N1CCC[C@H]1C(=O)NCc1cc(Cl)ccc1Cl)C(c1ccccc1)c1ccccc1

$$$$
5MLS_22U_H_301
     RDKit          3D

 27 29  0  0  0  0  0  0  0  0999 V2000
   16.4590  -15.4840   23.3090 N   0  0  0  0  0  0  0  0  0  0  0  0
   17.7480  -14.7590   23.3100 C   0  0  0  0  0  0  0  0  0  0  0  0
   17.4820  -13.3580   22.7230 C   0  0  0  0  0  0  0  0  0  0  0  0
   16.5860  -12.6740   23.1910 O   0  0  0  0  0  0  0  0  0  0  0  0
   18.2860  -14.6480   24.7520 C   0  0  0  0  0  0  0  0  0  0  0  0
   19.6690  -14.0560   24.8670 C   0  0  0  0  0  0  0  0  0  0  0  0
   20.7430  -14.6000   24.1690 C   0  0  0  0  0  0  0  0  0  0  0  0
   19.8940  -12.9480   25.6630 C   0  0  0  0  0  0  0  0  0  0  0  0
   22.0040  -14.0340   24.2560 C   0  0  0  0  0  0  0  0  0  0  0  0
   21.1530  -12.3700   25.7350 C   0  0  0  0  0  0  0  0  0  0  0  0
   22.2090  -12.9090   25.0220 C   0  0  0  0  0  0  0  0  0  0  0  0
   18.2450  -12.9150   21.7130 N   0  0  0  0  0  0  0  0  0  0  0  0
   17.9660  -11.5940   21.1270 C   0  0  0  0  0  0  0  0  0  0  0  0
   16.5130  -11.4970   20.6460 C   0  0  0  0  0  0  0  0  0  0  0  0
   15.9490  -12.4550   20.1060 O   0  0  0  0  0  0  0  0  0  0  0  0
   18.9500  -11.5140   19.9540 C   0  0  0  0  0  0  0  0  0  0  0  0
   20.0810  -12.4800   20.3310 C   0  0  0  0  0  0  0  0  0  0  0  0
   19.3570  -13.6020   21.0290 C   0  0  0  0  0  0  0  0  0  0  0  0
   15.9040  -10.3310   20.8690 N   0  0  0  0  0  0  0  0  0  0  0  0
   14.5090  -10.1170   20.4920 C   0  0  0  0  0  0  0  0  0  0  0  0
   13.5150  -10.1170   21.6320 C   0  0  0  0  0  0  0  0  0  0  0  0
   12.6300  -11.1680   21.8080 C   0  0  0  0  0  0  0  0  0  0  0  0
   11.6990  -11.1480   22.8340 C   0  0  0  0  0  0  0  0  0  0  0  0
   11.6240  -10.0640   23.6960 C   0  0  0  0  0  0  0  0  0  0  0  0
   12.5070   -9.0220   23.5180 C   0  0  0  0  0  0  0  0  0  0  0  0
   13.4510   -9.0350   22.5120 C   0  0  0  0  0  0  0  0  0  0  0  0
   12.4360   -7.6390   24.6000 Cl  0  0  0  0  0  0  0  0  0  0  0  0
  2  1  1  0
  3  2  1  0
  5  2  1  0
  4  3  2  0
 12  3  1  0
  6  5  1  0
  7  6  2  0
  8  6  1  0
  9  7  1  0
 10  8  2  0
 11  9  2  0
 11 10  1  0
 13 12  1  0
 18 12  1  0
 14 13  1  0
 16 13  1  0
 15 14  2  0
 19 14  1  0
 17 16  1  0
 18 17  1  0
 20 19  1  0
 21 20  1  0
 22 21  2  0
 26 21  1  0
 23 22  1  0
 24 23  2  0
 25 24  1  0
 26 25  2  0
 27 25  1  0
A    1
N1
A    2
C2
A    3
C3
A    4
O1
A    5
C1
A    6
C16
A    7
C17
A    8
C21
A    9
C18
A   10
C20
A   11
C19
A   12
N2
A   13
C7
A   14
C8
A   15
O2
A   16
C6
A   17
C5
A   18
C4
A   19
N3
A   20
C9
A   21
C10
A   22
C15
A   23
C14
A   24
C13
A   25
C12
A   26
C11
A   27
CL1
M  END
>  <Id>  (25) 
5MLS_22U_H_301

>  <ChainId>  (25) 
H

>  <AsymId>  (25) 
D

>  <SeqNum>  (25) 
301

>  <Name>  (25) 
D-phenylalanyl-N-(3-chlorobenzyl)-L-prolinamide

>  <SystematicName>  (25) 
(2S)-1-[(2R)-2-azanyl-3-phenyl-propanoyl]-N-[(3-chlorophenyl)methyl]pyrrolidine-2-carboxamide

>  <Synonyms>  (25) 
(2S)-1-[(2R)-2-amino-3-phenyl-propanoyl]-N-[(3-chlorophenyl)methyl]pyrrolidine-2-carboxamide

>  <Type>  (25) 
peptide-like

>  <Formula>  (25) 
C21 H24 Cl N3 O2

>  <ObservedFormula>  (25) 
C21 Cl N3 O2

>  <MolecularWeight>  (25) 
385.887

>  <ModifiedDate>  (25) 
2011-06-04

>  <Parent>  (25) 


>  <OneLetterCode>  (25) 


>  <SubcomponentList>  (25) 
DPN PRO C2A

>  <AmbiguousFlag>  (25) 
N

>  <InsertionCode>  (25) 


>  <InstanceId>  (25) 
5MLS_22U_H_301

>  <ChemCompId>  (25) 
22U

>  <PdbId>  (25) 
5MLS

>  <ResidueNumber>  (25) 
301

>  <InChI>  (25) 
InChI=1S/C21H24ClN3O2/c22-17-9-4-8-16(12-17)14-24-20(26)19-10-5-11-25(19)21(27)18(23)13-15-6-2-1-3-7-15/h1-4,6-9,12,18-19H,5,10-11,13-14,23H2,(H,24,26)/t18-,19+/m1/s1

>  <InChIKey>  (25) 
CJHLRGCXPGIPCB-MOPGFXCFSA-N

>  <SMILES>  (25) 
c1ccc(cc1)C[C@H](C(=O)N2CCC[C@H]2C(=O)NCc3cccc(c3)Cl)N

>  <MissingHeavyAtoms>  (25) 
0

>  <Model>  (25) 
1

>  <AltIds>  (25) 


>  <pKI>  (25) 
6.75

>  <ChemblID>  (25) 
CHEMBL321130

>  <standardized_canonical_smiles>  (25) 
N[C@H](Cc1ccccc1)C(=O)N1CCC[C@H]1C(=O)NCc1cccc(Cl)c1

$$$$
2ZC9_22U_H_1501
     RDKit          3D

 27 29  0  0  0  0  0  0  0  0999 V2000
   16.3050  -15.7140   23.2320 N   0  0  0  0  0  0  0  0  0  0  0  0
   17.6270  -15.0160   23.2870 C   0  0  0  0  0  0  0  0  0  0  0  0
   17.4490  -13.6090   22.7270 C   0  0  0  0  0  0  0  0  0  0  0  0
   16.4680  -12.9820   23.1440 O   0  0  0  0  0  0  0  0  0  0  0  0
   18.1650  -14.9640   24.7310 C   0  0  0  0  0  0  0  0  0  0  0  0
   19.5640  -14.3300   24.8080 C   0  0  0  0  0  0  0  0  0  0  0  0
   20.6640  -14.8530   24.1100 C   0  0  0  0  0  0  0  0  0  0  0  0
   19.7440  -13.1800   25.5860 C   0  0  0  0  0  0  0  0  0  0  0  0
   21.9170  -14.2340   24.2320 C   0  0  0  0  0  0  0  0  0  0  0  0
   20.9960  -12.5890   25.7570 C   0  0  0  0  0  0  0  0  0  0  0  0
   22.0730  -13.0830   24.9910 C   0  0  0  0  0  0  0  0  0  0  0  0
   18.1330  -13.1630   21.6570 N   0  0  0  0  0  0  0  0  0  0  0  0
   17.8360  -11.8460   21.1120 C   0  0  0  0  0  0  0  0  0  0  0  0
   16.4020  -11.7500   20.6340 C   0  0  0  0  0  0  0  0  0  0  0  0
   15.8850  -12.6720   20.0140 O   0  0  0  0  0  0  0  0  0  0  0  0
   18.8240  -11.7770   19.9170 C   0  0  0  0  0  0  0  0  0  0  0  0
   19.9730  -12.7300   20.3520 C   0  0  0  0  0  0  0  0  0  0  0  0
   19.2070  -13.9150   20.9810 C   0  0  0  0  0  0  0  0  0  0  0  0
   15.7260  -10.6080   20.9320 N   0  0  0  0  0  0  0  0  0  0  0  0
   14.3690  -10.4430   20.3670 C   0  0  0  0  0  0  0  0  0  0  0  0
   13.3410  -10.3610   21.5130 C   0  0  0  0  0  0  0  0  0  0  0  0
   12.4440  -11.4030   21.6720 C   0  0  0  0  0  0  0  0  0  0  0  0
   11.5120  -11.3900   22.7010 C   0  0  0  0  0  0  0  0  0  0  0  0
   11.4380  -10.2950   23.5610 C   0  0  0  0  0  0  0  0  0  0  0  0
   12.3350   -9.2340   23.4100 C   0  0  0  0  0  0  0  0  0  0  0  0
   13.2880   -9.2590   22.3860 C   0  0  0  0  0  0  0  0  0  0  0  0
   12.2410   -7.8830   24.5260 Cl  0  0  0  0  0  0  0  0  0  0  0  0
  2  1  1  0
  3  2  1  0
  5  2  1  0
  4  3  2  0
 12  3  1  0
  6  5  1  0
  7  6  2  0
  8  6  1  0
  9  7  1  0
 10  8  2  0
 11  9  2  0
 11 10  1  0
 13 12  1  0
 18 12  1  0
 14 13  1  0
 16 13  1  0
 15 14  2  0
 19 14  1  0
 17 16  1  0
 18 17  1  0
 20 19  1  0
 21 20  1  0
 22 21  2  0
 26 21  1  0
 23 22  1  0
 24 23  2  0
 25 24  1  0
 26 25  2  0
 27 25  1  0
A    1
N1
A    2
C2
A    3
C3
A    4
O1
A    5
C1
A    6
C16
A    7
C17
A    8
C21
A    9
C18
A   10
C20
A   11
C19
A   12
N2
A   13
C7
A   14
C8
A   15
O2
A   16
C6
A   17
C5
A   18
C4
A   19
N3
A   20
C9
A   21
C10
A   22
C15
A   23
C14
A   24
C13
A   25
C12
A   26
C11
A   27
CL1
M  END
>  <Id>  (26) 
2ZC9_22U_H_1501

>  <ChainId>  (26) 
H

>  <AsymId>  (26) 
F

>  <SeqNum>  (26) 
1501

>  <Name>  (26) 
D-phenylalanyl-N-(3-chlorobenzyl)-L-prolinamide

>  <SystematicName>  (26) 
(2S)-1-[(2R)-2-azanyl-3-phenyl-propanoyl]-N-[(3-chlorophenyl)methyl]pyrrolidine-2-carboxamide

>  <Synonyms>  (26) 
(2S)-1-[(2R)-2-amino-3-phenyl-propanoyl]-N-[(3-chlorophenyl)methyl]pyrrolidine-2-carboxamide

>  <Type>  (26) 
peptide-like

>  <Formula>  (26) 
C21 H24 Cl N3 O2

>  <ObservedFormula>  (26) 
C21 Cl N3 O2

>  <MolecularWeight>  (26) 
385.887

>  <ModifiedDate>  (26) 
2011-06-04

>  <Parent>  (26) 


>  <OneLetterCode>  (26) 


>  <SubcomponentList>  (26) 
DPN PRO C2A

>  <AmbiguousFlag>  (26) 
N

>  <InsertionCode>  (26) 


>  <InstanceId>  (26) 
2ZC9_22U_H_1501

>  <ChemCompId>  (26) 
22U

>  <PdbId>  (26) 
2ZC9

>  <ResidueNumber>  (26) 
1501

>  <InChI>  (26) 
InChI=1S/C21H24ClN3O2/c22-17-9-4-8-16(12-17)14-24-20(26)19-10-5-11-25(19)21(27)18(23)13-15-6-2-1-3-7-15/h1-4,6-9,12,18-19H,5,10-11,13-14,23H2,(H,24,26)/t18-,19+/m1/s1

>  <InChIKey>  (26) 
CJHLRGCXPGIPCB-MOPGFXCFSA-N

>  <SMILES>  (26) 
c1ccc(cc1)C[C@H](C(=O)N2CCC[C@H]2C(=O)NCc3cccc(c3)Cl)N

>  <MissingHeavyAtoms>  (26) 
0

>  <Model>  (26) 
1

>  <AltIds>  (26) 


>  <pKI>  (26) 
6.75

>  <ChemblID>  (26) 
CHEMBL321130

>  <standardized_canonical_smiles>  (26) 
N[C@H](Cc1ccccc1)C(=O)N1CCC[C@H]1C(=O)NCc1cccc(Cl)c1

$$$$
1BHX_R56_F_1
     RDKit          3D

 31 33  0  0  0  0  0  0  0  0999 V2000
   22.1690  -14.5920   25.7200 C   0  0  0  0  0  0  0  0  0  0  0  0
   22.1450  -15.9400   25.3790 C   0  0  0  0  0  0  0  0  0  0  0  0
   20.9710  -16.7030   25.6290 C   0  0  0  0  0  0  0  0  0  0  0  0
   19.8390  -16.0960   26.2060 C   0  0  0  0  0  0  0  0  0  0  0  0
   19.8790  -14.7540   26.5500 C   0  0  0  0  0  0  0  0  0  0  0  0
   21.0250  -14.0020   26.3100 C   0  0  0  0  0  0  0  0  0  0  0  0
   18.5670  -16.9220   26.4870 C   0  0  0  0  0  0  0  0  0  0  0  0
   17.8430  -17.3940   24.8500 S   0  0  0  0  0  0  0  0  0  0  0  0
   18.8810  -18.1230   24.0360 O   0  0  0  0  0  0  0  0  0  0  0  0
   16.5900  -17.9970   25.0660 O   0  0  0  0  0  0  0  0  0  0  0  0
   17.6520  -15.8550   24.1860 N   0  0  0  0  0  0  0  0  0  0  0  0
   18.0550  -15.5820   22.8040 C   0  0  0  0  0  0  0  0  0  0  0  0
   17.3480  -14.3450   22.3100 C   0  0  0  0  0  0  0  0  0  0  0  0
   16.3540  -13.9150   22.9140 O   0  0  0  0  0  0  0  0  0  0  0  0
   17.8480  -13.7720   21.1870 N   0  0  0  0  0  0  0  0  0  0  0  0
   19.0090  -14.3360   20.5480 C   0  0  0  0  0  0  0  0  0  0  0  0
   20.1060  -14.6080   21.5470 C   0  0  0  0  0  0  0  0  0  0  0  0
   19.5960  -15.4160   22.7580 C   0  0  0  0  0  0  0  0  0  0  0  0
   19.5770  -13.0300   19.5260 S   0  0  0  0  0  0  0  0  0  0  0  0
   17.9100  -12.3660   19.2870 C   0  0  0  0  0  0  0  0  0  0  0  0
   17.2240  -12.5620   20.5980 C   0  0  0  0  0  0  0  0  0  0  0  0
   15.6820  -12.7390   20.3790 C   0  0  0  0  0  0  0  0  0  0  0  0
   15.2270  -13.7840   19.9280 O   0  0  0  0  0  0  0  0  0  0  0  0
   14.8940  -11.6530   20.6710 N   0  0  0  0  0  0  0  0  0  0  0  0
   13.4600  -11.7790   20.4810 C   0  0  0  0  0  0  0  0  0  0  0  0
   12.7470  -10.6020   21.1150 C   0  0  0  0  0  0  0  0  0  0  0  0
   12.8600  -10.7240   22.6160 C   0  0  0  0  0  0  0  0  0  0  0  0
   12.0620  -11.8660   23.1110 N   0  0  0  0  0  0  0  0  0  0  0  0
   11.1950  -11.7100   24.0880 C   0  0  0  0  0  0  0  0  0  0  0  0
   11.0320  -10.5560   24.6390 N   0  0  0  0  0  0  0  0  0  0  0  0
   10.5070  -12.7250   24.5240 N   0  0  0  0  0  0  0  0  0  0  0  0
  2  1  2  0
  6  1  1  0
  3  2  1  0
  4  3  2  0
  5  4  1  0
  7  4  1  0
  6  5  2  0
  8  7  1  0
  9  8  2  0
 10  8  2  0
 11  8  1  0
 12 11  1  0
 13 12  1  0
 18 12  1  0
 14 13  2  0
 15 13  1  0
 16 15  1  0
 21 15  1  0
 17 16  1  0
 19 16  1  0
 18 17  1  0
 20 19  1  0
 21 20  1  0
 22 21  1  0
 23 22  2  0
 24 22  1  0
 25 24  1  0
 26 25  1  0
 27 26  1  0
 28 27  1  0
 29 28  1  0
 30 29  1  0
 31 29  2  0
A    1
C1
A    2
C3
A    3
C5
A    4
C7
A    5
C8
A    6
C10
A    7
C12
A    8
S15
A    9
O16
A   10
O17
A   11
N18
A   12
C20
A   13
C22
A   14
O23
A   15
N24
A   16
C25
A   17
C27
A   18
C30
A   19
S33
A   20
C34
A   21
C37
A   22
C39
A   23
O40
A   24
N41
A   25
C43
A   26
C46
A   27
C49
A   28
N52
A   29
C54
A   30
N55
A   31
N58
M  END
>  <Id>  (27) 
1BHX_R56_F_1

>  <ChainId>  (27) 
F

>  <AsymId>  (27) 
E

>  <SeqNum>  (27) 
1

>  <Name>  (27) 
5-OXO-6-PHENYLMETHANESULFONYLAMINO-HEXAHYDRO-THIAZOLO[3,2-A]PYRIDINE-3-CARBOXYLIC ACID (3-GUANIDINO-PROPYL)-AMIDE

>  <SystematicName>  (27) 
(3R,6R,8aS)-N-(3-carbamimidamidopropyl)-5-oxo-6-(phenylmethylsulfonylamino)-2,3,6,7,8,8a-hexahydro-[1,3]thiazolo[2,3-f]pyridine-3-carboxamide

>  <Synonyms>  (27) 


>  <Type>  (27) 
NON-POLYMER

>  <Formula>  (27) 
C19 H28 N6 O4 S2

>  <ObservedFormula>  (27) 
C19 S2 N6 O4

>  <MolecularWeight>  (27) 
468.593

>  <ModifiedDate>  (27) 
2011-06-04

>  <Parent>  (27) 


>  <OneLetterCode>  (27) 


>  <SubcomponentList>  (27) 


>  <AmbiguousFlag>  (27) 
N

>  <InsertionCode>  (27) 


>  <InstanceId>  (27) 
1BHX_R56_F_1

>  <ChemCompId>  (27) 
R56

>  <PdbId>  (27) 
1BHX

>  <ResidueNumber>  (27) 
1

>  <InChI>  (27) 
InChI=1S/C19H28N6O4S2/c20-19(21)23-10-4-9-22-17(26)15-11-30-16-8-7-14(18(27)25(15)16)24-31(28,29)12-13-5-2-1-3-6-13/h1-3,5-6,14-16,24H,4,7-12H2,(H,22,26)(H4,20,21,23)/t14-,15+,16+/m1/s1

>  <InChIKey>  (27) 
SOIIHESTBYNJRH-PMPSAXMXSA-N

>  <SMILES>  (27) 
c1ccc(cc1)CS(=O)(=O)N[C@@H]2CC[C@H]3N(C2=O)[C@@H](CS3)C(=O)NCCCNC(=N)N

>  <MissingHeavyAtoms>  (27) 
0

>  <Model>  (27) 
1

>  <AltIds>  (27) 


>  <pKI>  (27) 
6.84

>  <ChemblID>  (27) 
CHEMBL120842

>  <standardized_canonical_smiles>  (27) 
N=C(N)NCCCNC(=O)[C@@H]1CS[C@H]2CC[C@@H](NS(=O)(=O)Cc3ccccc3)C(=O)N21

$$$$
1O2G_696_H_410
     RDKit          3D

 25 28  0  0  0  0  0  0  0  0999 V2000
   11.5100  -11.6470   22.5770 C   0  0  0  0  0  0  0  0  0  0  0  0
   11.9960  -10.3580   22.1890 C   0  0  0  0  0  0  0  0  0  0  0  0
   12.8590  -10.2060   21.1080 C   0  0  0  0  0  0  0  0  0  0  0  0
   13.2380  -11.3410   20.4050 C   0  0  0  0  0  0  0  0  0  0  0  0
   12.7680  -12.5750   20.7860 C   0  0  0  0  0  0  0  0  0  0  0  0
   11.9060  -12.7540   21.8260 C   0  0  0  0  0  0  0  0  0  0  0  0
   10.6970  -11.7620   23.7050 C   0  0  0  0  0  0  0  0  0  0  0  0
    9.9910  -12.8580   23.9020 N   0  0  0  0  0  0  0  0  0  0  0  0
   10.5960  -10.7460   24.5320 N   0  0  0  0  0  0  0  0  0  0  0  0
   13.9860  -11.4730   19.3660 N   0  0  0  0  0  0  0  0  0  0  0  0
   13.1510  -13.6000   19.8200 C   0  0  0  0  0  0  0  0  0  0  0  0
   13.9760  -12.7630   19.0070 C   0  0  0  0  0  0  0  0  0  0  0  0
   14.8490  -13.3090   18.0820 C   0  0  0  0  0  0  0  0  0  0  0  0
   14.8170  -14.7040   17.8360 C   0  0  0  0  0  0  0  0  0  0  0  0
   15.6500  -15.2640   16.8830 C   0  0  0  0  0  0  0  0  0  0  0  0
   16.5440  -14.4630   16.1910 C   0  0  0  0  0  0  0  0  0  0  0  0
   16.6460  -13.0830   16.4510 C   0  0  0  0  0  0  0  0  0  0  0  0
   15.7820  -12.5170   17.4160 C   0  0  0  0  0  0  0  0  0  0  0  0
   15.7850  -11.1630   17.6660 O   0  0  0  0  0  0  0  0  0  0  0  0
   17.6360  -12.3600   15.7350 C   0  0  0  0  0  0  0  0  0  0  0  0
   17.3410  -11.2050   15.0030 C   0  0  0  0  0  0  0  0  0  0  0  0
   18.3400  -10.5460   14.2720 C   0  0  0  0  0  0  0  0  0  0  0  0
   19.6550  -11.0370   14.2590 C   0  0  0  0  0  0  0  0  0  0  0  0
   19.9650  -12.1780   14.9970 C   0  0  0  0  0  0  0  0  0  0  0  0
   18.9680  -12.8340   15.7260 C   0  0  0  0  0  0  0  0  0  0  0  0
  2  1  2  0
  6  1  1  0
  7  1  1  0
  3  2  1  0
  4  3  2  0
  5  4  1  0
 10  4  1  0
  6  5  2  0
 11  5  1  0
  8  7  1  0
  9  7  2  0
 12 10  1  0
 12 11  2  0
 13 12  1  0
 14 13  2  0
 18 13  1  0
 15 14  1  0
 16 15  2  0
 17 16  1  0
 18 17  2  0
 20 17  1  0
 19 18  1  0
 21 20  2  0
 25 20  1  0
 22 21  1  0
 23 22  2  0
 24 23  1  0
 25 24  2  0
M  CHG  2   9   1  19  -1
A    1
C1
A    2
C2
A    3
C3
A    4
C4
A    5
C5
A    6
C6
A    7
C7
A    8
N1
A    9
N2
A   10
N3
A   11
CN4
A   12
C8
A   13
C1'
A   14
C2'
A   15
C3'
A   16
C4'
A   17
C5'
A   18
C6'
A   19
O6'
A   20
C1B
A   21
C2B
A   22
C3B
A   23
C4B
A   24
C5B
A   25
C6B
M  END
>  <Id>  (28) 
1O2G_696_H_410

>  <ChainId>  (28) 
H

>  <AsymId>  (28) 
E

>  <SeqNum>  (28) 
410

>  <Name>  (28) 
3-{5-[AMINO(IMINIO)METHYL]-1H-INDOL-2-YL}-1,1'-BIPHENYL-2-OLATE

>  <SystematicName>  (28) 
2-[5-(amino-azaniumylidene-methyl)-1H-indol-2-yl]-6-phenyl-phenolate

>  <Synonyms>  (28) 
CRA_8696

>  <Type>  (28) 
NON-POLYMER

>  <Formula>  (28) 
C21 H17 N3 O

>  <ObservedFormula>  (28) 
C21 N3 O

>  <MolecularWeight>  (28) 
327.379

>  <ModifiedDate>  (28) 
2011-06-04

>  <Parent>  (28) 


>  <OneLetterCode>  (28) 


>  <SubcomponentList>  (28) 


>  <AmbiguousFlag>  (28) 
N

>  <InsertionCode>  (28) 


>  <InstanceId>  (28) 
1O2G_696_H_410

>  <ChemCompId>  (28) 
696

>  <PdbId>  (28) 
1O2G

>  <ResidueNumber>  (28) 
410

>  <InChI>  (28) 
InChI=1S/C21H17N3O/c22-21(23)14-9-10-18-15(11-14)12-19(24-18)17-8-4-7-16(20(17)25)13-5-2-1-3-6-13/h1-12,24-25H,(H3,22,23)

>  <InChIKey>  (28) 
GAVRMVQHHVMXFD-UHFFFAOYSA-N

>  <SMILES>  (28) 
c1ccc(cc1)c2cccc(c2[O-])c3cc4cc(ccc4[nH]3)C(=[NH2+])N

>  <MissingHeavyAtoms>  (28) 
0

>  <Model>  (28) 
1

>  <AltIds>  (28) 


>  <pKI>  (28) 
6.49

>  <ChemblID>  (28) 
CHEMBL96433

>  <standardized_canonical_smiles>  (28) 
N=C(N)c1ccc2[nH]c(-c3cccc(-c4ccccc4)c3O)cc2c1

$$$$
1GJ5_130_H_410
     RDKit          3D

 25 28  0  0  0  0  0  0  0  0999 V2000
   11.7580  -11.5190   22.7200 C   0  0  0  0  0  0  0  0  0  0  0  0
   12.1340  -10.2390   22.2740 C   0  0  0  0  0  0  0  0  0  0  0  0
   12.9480  -10.0860   21.1520 C   0  0  0  0  0  0  0  0  0  0  0  0
   13.3700  -11.2220   20.5040 C   0  0  0  0  0  0  0  0  0  0  0  0
   13.0190  -12.4630   20.9080 C   0  0  0  0  0  0  0  0  0  0  0  0
   12.2050  -12.6540   22.0230 C   0  0  0  0  0  0  0  0  0  0  0  0
   10.9580  -11.6400   23.8400 C   0  0  0  0  0  0  0  0  0  0  0  0
   10.3100  -12.7540   24.0350 N   0  0  0  0  0  0  0  0  0  0  0  0
   10.8640  -10.6310   24.6810 N   0  0  0  0  0  0  0  0  0  0  0  0
   14.1000  -11.3850   19.4550 N   0  0  0  0  0  0  0  0  0  0  0  0
   13.5120  -13.3990   20.1330 N   0  0  0  0  0  0  0  0  0  0  0  0
   14.1830  -12.6670   19.2380 C   0  0  0  0  0  0  0  0  0  0  0  0
   15.0200  -13.2090   18.2580 C   0  0  0  0  0  0  0  0  0  0  0  0
   14.9870  -14.5920   18.0180 C   0  0  0  0  0  0  0  0  0  0  0  0
   15.8100  -15.1670   17.0750 C   0  0  0  0  0  0  0  0  0  0  0  0
   16.6870  -14.3730   16.3580 C   0  0  0  0  0  0  0  0  0  0  0  0
   16.7660  -12.9880   16.5620 C   0  0  0  0  0  0  0  0  0  0  0  0
   15.9160  -12.3970   17.5190 C   0  0  0  0  0  0  0  0  0  0  0  0
   15.9240  -11.0320   17.7280 O   0  0  0  0  0  0  0  0  0  0  0  0
   17.7440  -12.3010   15.8160 C   0  0  0  0  0  0  0  0  0  0  0  0
   17.4600  -11.1810   15.0340 C   0  0  0  0  0  0  0  0  0  0  0  0
   18.4670  -10.5680   14.2920 C   0  0  0  0  0  0  0  0  0  0  0  0
   19.7720  -11.0660   14.3070 C   0  0  0  0  0  0  0  0  0  0  0  0
   20.0750  -12.1790   15.0820 C   0  0  0  0  0  0  0  0  0  0  0  0
   19.0730  -12.7960   15.8300 C   0  0  0  0  0  0  0  0  0  0  0  0
  2  1  2  0
  6  1  1  0
  7  1  1  0
  3  2  1  0
  4  3  2  0
  5  4  1  0
 10  4  1  0
  6  5  2  0
 11  5  1  0
  8  7  1  0
  9  7  2  0
 12 10  1  0
 12 11  2  0
 13 12  1  0
 14 13  2  0
 18 13  1  0
 15 14  1  0
 16 15  2  0
 17 16  1  0
 18 17  2  0
 20 17  1  0
 19 18  1  0
 21 20  2  0
 25 20  1  0
 22 21  1  0
 23 22  2  0
 24 23  1  0
 25 24  2  0
A    1
C1
A    2
C2
A    3
C3
A    4
C4
A    5
C5
A    6
C6
A    7
C7
A    8
N1
A    9
N2
A   10
N3
A   11
N4
A   12
C8
A   13
C1'
A   14
C2'
A   15
C3'
A   16
C4'
A   17
C5'
A   18
C6'
A   19
O6'
A   20
C1B
A   21
C2B
A   22
C3B
A   23
C4B
A   24
C5B
A   25
C6B
M  END
>  <Id>  (29) 
1GJ5_130_H_410

>  <ChainId>  (29) 
H

>  <AsymId>  (29) 
E

>  <SeqNum>  (29) 
410

>  <Name>  (29) 
2-(2-HYDROXY-BIPHENYL)-1H-BENZOIMIDAZOLE-5-CARBOXAMIDINE

>  <SystematicName>  (29) 
2-(2-hydroxy-3-phenyl-phenyl)-1H-benzimidazole-5-carboximidamide

>  <Synonyms>  (29) 


>  <Type>  (29) 
NON-POLYMER

>  <Formula>  (29) 
C20 H16 N4 O

>  <ObservedFormula>  (29) 
C20 N4 O

>  <MolecularWeight>  (29) 
328.367

>  <ModifiedDate>  (29) 
2011-06-04

>  <Parent>  (29) 


>  <OneLetterCode>  (29) 


>  <SubcomponentList>  (29) 


>  <AmbiguousFlag>  (29) 
N

>  <InsertionCode>  (29) 


>  <InstanceId>  (29) 
1GJ5_130_H_410

>  <ChemCompId>  (29) 
130

>  <PdbId>  (29) 
1GJ5

>  <ResidueNumber>  (29) 
410

>  <InChI>  (29) 
InChI=1S/C20H16N4O/c21-19(22)13-9-10-16-17(11-13)24-20(23-16)15-8-4-7-14(18(15)25)12-5-2-1-3-6-12/h1-11,25H,(H3,21,22)(H,23,24)

>  <InChIKey>  (29) 
LMGQGPVCSYOMNS-UHFFFAOYSA-N

>  <SMILES>  (29) 
[H]/N=C(\c1ccc2c(c1)nc([nH]2)c3cccc(c3O)c4ccccc4)/N

>  <MissingHeavyAtoms>  (29) 
0

>  <Model>  (29) 
1

>  <AltIds>  (29) 


>  <pKI>  (29) 
4.82

>  <ChemblID>  (29) 
CHEMBL327715

>  <standardized_canonical_smiles>  (29) 
N=C(N)c1ccc2nc(-c3cccc(-c4ccccc4)c3O)[nH]c2c1

$$$$
4E7R_PO4_G_1305
     RDKit          3D

  5  4  0  0  0  0  0  0  0  0999 V2000
  -18.1060  -26.6240  -29.4120 P   0  0  0  0  0  0  0  0  0  0  0  0
  -18.8870  -25.9950  -30.5430 O   0  0  0  0  0  0  0  0  0  0  0  0
  -16.7020  -26.0510  -29.3590 O   0  0  0  0  0  0  0  0  0  0  0  0
  -18.8130  -26.3370  -28.1050 O   0  0  0  0  0  0  0  0  0  0  0  0
  -18.0460  -28.1200  -29.6390 O   0  0  0  0  0  0  0  0  0  0  0  0
  2  1  2  0
  3  1  1  0
  4  1  1  0
  5  1  1  0
M  CHG  3   3  -1   4  -1   5  -1
A    1
P
A    2
O1
A    3
O2
A    4
O3
A    5
O4
M  END
>  <Id>  (30) 
4E7R_PO4_G_1305

>  <ChainId>  (30) 
G

>  <AsymId>  (30) 
R

>  <SeqNum>  (30) 
1305

>  <Name>  (30) 
PHOSPHATE ION

>  <SystematicName>  (30) 
phosphate

>  <Synonyms>  (30) 


>  <Type>  (30) 
NON-POLYMER

>  <Formula>  (30) 
O4 P

>  <ObservedFormula>  (30) 
P O4

>  <MolecularWeight>  (30) 
94.971

>  <ModifiedDate>  (30) 
2011-06-04

>  <Parent>  (30) 


>  <OneLetterCode>  (30) 


>  <SubcomponentList>  (30) 


>  <AmbiguousFlag>  (30) 
N

>  <InsertionCode>  (30) 


>  <InstanceId>  (30) 
4E7R_PO4_G_1305

>  <ChemCompId>  (30) 
PO4

>  <PdbId>  (30) 
4E7R

>  <ResidueNumber>  (30) 
1305

>  <InChI>  (30) 
InChI=1S/H3O4P/c1-5(2,3)4/h(H3,1,2,3,4)/p-3

>  <InChIKey>  (30) 
NBIIXXVUZAFLBC-UHFFFAOYSA-K

>  <SMILES>  (30) 
[O-]P(=O)([O-])[O-]

>  <MissingHeavyAtoms>  (30) 
0

>  <Model>  (30) 
1

>  <AltIds>  (30) 


>  <pKI>  (30) 
4.82

>  <ChemblID>  (30) 
CHEMBL327715

>  <standardized_canonical_smiles>  (30) 
N=C(N)c1ccc2nc(-c3cccc(-c4ccccc4)c3O)[nH]c2c1

$$$$
4E7R_NAG_G_1301
     RDKit          3D

 14 14  0  0  0  0  0  0  0  0999 V2000
  -18.3580  -29.6270  -10.5860 C   0  0  0  0  0  0  0  0  0  0  0  0
  -21.5060  -29.7920   -8.6930 O   0  0  0  0  0  0  0  0  0  0  0  0
  -20.1250  -29.5660   -8.9720 C   0  0  0  0  0  0  0  0  0  0  0  0
  -16.7660  -30.5380  -13.7360 O   0  0  0  0  0  0  0  0  0  0  0  0
  -20.0580  -27.9550   -7.1540 C   0  0  0  0  0  0  0  0  0  0  0  0
  -21.4250  -28.0120   -6.8670 O   0  0  0  0  0  0  0  0  0  0  0  0
  -16.9470  -30.4710  -12.5340 C   0  0  0  0  0  0  0  0  0  0  0  0
  -20.3110  -30.9560  -10.8630 O   0  0  0  0  0  0  0  0  0  0  0  0
  -18.1750  -28.1370   -8.6660 O   0  0  0  0  0  0  0  0  0  0  0  0
  -16.0110  -31.1410  -11.6000 C   0  0  0  0  0  0  0  0  0  0  0  0
  -19.8140  -29.7100  -10.3670 C   0  0  0  0  0  0  0  0  0  0  0  0
  -17.7440  -28.3490   -9.9900 C   0  0  0  0  0  0  0  0  0  0  0  0
  -19.6620  -28.2190   -8.5200 C   0  0  0  0  0  0  0  0  0  0  0  0
  -18.1140  -29.7150  -12.0180 N   0  0  0  0  0  0  0  0  0  0  0  0
  3 13  1  0
  1 14  1  0
 11  8  1  0
  5  6  1  0
  3  2  1  0
  1 11  1  0
 12  9  1  0
 11  3  1  0
 13  5  1  0
  7  4  2  0
  7 14  1  0
  7 10  1  0
 13  9  1  0
 12  1  1  0
A    1
C2
A    2
O4
A    3
C4
A    4
O7
A    5
C6
A    6
O6
A    7
C7
A    8
O3
A    9
O5
A   10
C8
A   11
C3
A   12
C1
A   13
C5
A   14
N2
M  END
>  <InstanceId>  (31) 
4E7R_NAG

>  <ChemCompId>  (31) 
NAG

>  <PdbId>  (31) 
4E7R

>  <ChainId>  (31) 
G

>  <ResidueNumber>  (31) 
1301

>  <InsertionCode>  (31) 
null

>  <Model>  (31) 
1

>  <AltIds>  (31) 


>  <MissingHeavyAtoms>  (31) 
1

>  <ObservedFormula>  (31) 
C8 N O5

>  <AsymId>  (31) 
N

>  <SeqNum>  (31) 
1301

>  <Name>  (31) 
N-ACETYL-D-GLUCOSAMINE

>  <SystematicName>  (31) 
N-[(2R,3R,4R,5S,6R)-6-(hydroxymethyl)-2,4,5-tris(oxidanyl)oxan-3-yl]ethanamide

>  <Synonyms>  (31) 


>  <Type>  (31) 
D-SACCHARIDE

>  <Formula>  (31) 
C8 H15 N O6

>  <MolecularWeight>  (31) 
221.208

>  <ModifiedDate>  (31) 
2012-11-26

>  <Parent>  (31) 


>  <OneLetterCode>  (31) 


>  <SubcomponentList>  (31) 


>  <AmbiguousFlag>  (31) 
N

>  <InChI>  (31) 
InChI=1S/C8H15NO6/c1-3(11)9-5-7(13)6(12)4(2-10)15-8(5)14/h4-8,10,12-14H,2H2,1H3,(H,9,11)/t4-,5-,6-,7-,8-/m1/s1

>  <InChIKey>  (31) 
OVRNDRQMDRJTHS-FMDGEEDCSA-N

>  <SMILES>  (31) 
CC(=O)N[C@@H]1[C@H]([C@@H]([C@H](O[C@H]1O)CO)O)O

>  <pKI>  (31) 
4.82

>  <ChemblID>  (31) 
CHEMBL327715

>  <standardized_canonical_smiles>  (31) 
N=C(N)c1ccc2nc(-c3cccc(-c4ccccc4)c3O)[nH]c2c1

$$$$
4E7R_0NW_G_1302
     RDKit          3D

 40 43  0  0  0  0  0  0  0  0999 V2000
   -3.1190  -16.4040  -21.0990 C   0  0  0  0  0  0  0  0  0  0  0  0
   -2.5780  -15.8180  -22.2430 C   0  0  0  0  0  0  0  0  0  0  0  0
   -1.3120  -16.1810  -22.6890 C   0  0  0  0  0  0  0  0  0  0  0  0
   -0.3240  -18.7870  -20.1170 C   0  0  0  0  0  0  0  0  0  0  0  0
   -0.6560  -20.1960  -20.6290 C   0  0  0  0  0  0  0  0  0  0  0  0
   -2.0970  -20.3680  -21.0350 C   0  0  0  0  0  0  0  0  0  0  0  0
   -4.3990  -20.8120  -20.4900 C   0  0  0  0  0  0  0  0  0  0  0  0
   -4.9830  -22.0560  -19.8380 C   0  0  0  0  0  0  0  0  0  0  0  0
   -4.7870  -22.0130  -18.3380 C   0  0  0  0  0  0  0  0  0  0  0  0
   -3.2860  -22.0810  -18.1250 C   0  0  0  0  0  0  0  0  0  0  0  0
   -2.6340  -20.8270  -18.6980 C   0  0  0  0  0  0  0  0  0  0  0  0
   -0.6480  -25.3550  -20.8700 C   0  0  0  0  0  0  0  0  0  0  0  0
   -1.7840  -25.3930  -21.6800 C   0  0  0  0  0  0  0  0  0  0  0  0
   -2.0350  -24.3330  -22.5400 C   0  0  0  0  0  0  0  0  0  0  0  0
   -1.1640  -23.2390  -22.5350 C   0  0  0  0  0  0  0  0  0  0  0  0
   -3.2410  -24.2710  -23.4250 C   0  0  0  0  0  0  0  0  0  0  0  0
   -3.1500  -23.9380  -24.7730 C   0  0  0  0  0  0  0  0  0  0  0  0
   -0.7130  -15.5390  -23.9070 C   0  0  0  0  0  0  0  0  0  0  0  0
   -1.4590  -14.7640  -24.6850 N   0  0  0  0  0  0  0  0  0  0  0  0
    0.5100  -15.7130  -24.1850 N   0  0  0  0  0  0  0  0  0  0  0  0
   -0.5900  -17.1330  -21.9850 C   0  0  0  0  0  0  0  0  0  0  0  0
   -1.1340  -17.7330  -20.8520 C   0  0  0  0  0  0  0  0  0  0  0  0
    0.1700  -20.5420  -21.7690 N   0  0  0  0  0  0  0  0  0  0  0  0
    0.9760  -21.9330  -21.7550 S   0  0  0  0  0  0  0  0  0  0  0  0
   -0.0240  -23.1950  -21.7340 C   0  0  0  0  0  0  0  0  0  0  0  0
   -4.4990  -24.4830  -22.8660 C   0  0  0  0  0  0  0  0  0  0  0  0
   -5.6410  -24.3870  -23.6570 C   0  0  0  0  0  0  0  0  0  0  0  0
   -5.5320  -24.0640  -25.0030 C   0  0  0  0  0  0  0  0  0  0  0  0
   -6.9630  -23.9100  -26.0720 Cl  0  0  0  0  0  0  0  0  0  0  0  0
   -4.2910  -23.8410  -25.5540 C   0  0  0  0  0  0  0  0  0  0  0  0
   -1.5950  -23.6280  -25.6120 Cl  0  0  0  0  0  0  0  0  0  0  0  0
    0.2270  -24.2720  -20.8880 C   0  0  0  0  0  0  0  0  0  0  0  0
    1.8000  -21.9270  -22.9300 O   0  0  0  0  0  0  0  0  0  0  0  0
    1.7710  -21.9530  -20.5630 O   0  0  0  0  0  0  0  0  0  0  0  0
   -2.9960  -20.6760  -20.1060 N   0  0  0  0  0  0  0  0  0  0  0  0
   -5.4530  -23.2270  -17.7000 C   0  0  0  0  0  0  0  0  0  0  0  0
   -5.2000  -23.3080  -16.1940 C   0  0  0  0  0  0  0  0  0  0  0  0
   -6.0070  -22.3290  -15.4870 N   0  0  0  0  0  0  0  0  0  0  0  0
   -2.4110  -20.2360  -22.2080 O   0  0  0  0  0  0  0  0  0  0  0  0
   -2.3980  -17.3640  -20.4000 C   0  0  0  0  0  0  0  0  0  0  0  0
  2  1  2  0
 40  1  1  0
  3  2  1  0
 18  3  1  0
 21  3  2  0
  5  4  1  0
 22  4  1  0
  6  5  1  0
 23  5  1  0
 35  6  1  0
 39  6  2  0
  8  7  1  0
 35  7  1  0
  9  8  1  0
 10  9  1  0
 36  9  1  0
 11 10  1  0
 35 11  1  0
 13 12  2  0
 32 12  1  0
 14 13  1  0
 15 14  2  0
 16 14  1  0
 25 15  1  0
 17 16  2  0
 26 16  1  0
 30 17  1  0
 31 17  1  0
 19 18  2  0
 20 18  1  0
 22 21  1  0
 40 22  2  0
 24 23  1  0
 25 24  1  0
 33 24  2  0
 34 24  2  0
 32 25  2  0
 27 26  2  0
 28 27  1  0
 29 28  1  0
 30 28  2  0
 37 36  1  0
 38 37  1  0
A    1
C1
A    2
C2
A    3
C3
A    4
C7
A    5
C8
A    6
C9
A    7
C12
A    8
C13
A    9
C14
A   10
C15
A   11
C16
A   12
C30
A   13
C31
A   14
C32
A   15
C33
A   16
C34
A   17
C35
A   18
C44
A   19
N46
A   20
N45
A   21
C4
A   22
C5
A   23
N24
A   24
S25
A   25
C28
A   26
C39
A   27
C38
A   28
C37
A   29
CL2
A   30
C36
A   31
CL1
A   32
C29
A   33
O27
A   34
O26
A   35
N11
A   36
C17
A   37
C18
A   38
N19
A   39
O10
A   40
C6
M  END
>  <Id>  (32) 
4E7R_0NW_G_1302

>  <ChainId>  (32) 
G

>  <AsymId>  (32) 
O

>  <SeqNum>  (32) 
1302

>  <Name>  (32) 
3-[(2S)-3-[4-(2-aminoethyl)piperidin-1-yl]-2-{[(2',4'-dichlorobiphenyl-3-yl)sulfonyl]amino}-3-oxopropyl]benzenecarboximidamide

>  <SystematicName>  (32) 
3-[(2S)-3-[4-(2-azanylethyl)piperidin-1-yl]-2-[[3-(2,4-dichlorophenyl)phenyl]sulfonylamino]-3-oxidanylidene-propyl]benzenecarboximidamide

>  <Synonyms>  (32) 


>  <Type>  (32) 
NON-POLYMER

>  <Formula>  (32) 
C29 H33 Cl2 N5 O3 S

>  <ObservedFormula>  (32) 
C29 S Cl2 N5 O3

>  <MolecularWeight>  (32) 
602.575

>  <ModifiedDate>  (32) 
2012-06-15

>  <Parent>  (32) 


>  <OneLetterCode>  (32) 


>  <SubcomponentList>  (32) 


>  <AmbiguousFlag>  (32) 
N

>  <InsertionCode>  (32) 


>  <InstanceId>  (32) 
4E7R_0NW_G_1302

>  <ChemCompId>  (32) 
0NW

>  <PdbId>  (32) 
4E7R

>  <ResidueNumber>  (32) 
1302

>  <InChI>  (32) 
InChI=1S/C29H33Cl2N5O3S/c30-23-7-8-25(26(31)18-23)21-4-2-6-24(17-21)40(38,39)35-27(16-20-3-1-5-22(15-20)28(33)34)29(37)36-13-10-19(9-12-32)11-14-36/h1-8,15,17-19,27,35H,9-14,16,32H2,(H3,33,34)/t27-/m0/s1

>  <InChIKey>  (32) 
ZLCINVZAICQINL-MHZLTWQESA-N

>  <SMILES>  (32) 
[H]/N=C(\c1cccc(c1)C[C@@H](C(=O)N2CCC(CC2)CCN)NS(=O)(=O)c3cccc(c3)c4ccc(cc4Cl)Cl)/N

>  <MissingHeavyAtoms>  (32) 
0

>  <Model>  (32) 
1

>  <AltIds>  (32) 


>  <pKI>  (32) 
4.82

>  <ChemblID>  (32) 
CHEMBL327715

>  <standardized_canonical_smiles>  (32) 
N=C(N)c1ccc2nc(-c3cccc(-c4ccccc4)c3O)[nH]c2c1

$$$$
4E7R_GOL_G_1306
     RDKit          3D

  6  5  0  0  0  0  0  0  0  0999 V2000
  -11.4880  -10.8410  -36.4090 C   0  0  0  0  0  0  0  0  0  0  0  0
  -12.2940  -11.2120  -35.3590 O   0  0  0  0  0  0  0  0  0  0  0  0
  -10.0060  -10.9450  -36.2660 C   0  0  0  0  0  0  0  0  0  0  0  0
   -9.3350  -10.4950  -37.3870 O   0  0  0  0  0  0  0  0  0  0  0  0
   -9.5150  -12.2830  -35.8060 C   0  0  0  0  0  0  0  0  0  0  0  0
   -8.2630  -12.3900  -35.2090 O   0  0  0  0  0  0  0  0  0  0  0  0
  2  1  1  0
  3  1  1  0
  4  3  1  0
  5  3  1  0
  6  5  1  0
A    1
C1
A    2
O1
A    3
C2
A    4
O2
A    5
C3
A    6
O3
M  END
>  <Id>  (33) 
4E7R_GOL_G_1306

>  <ChainId>  (33) 
G

>  <AsymId>  (33) 
S

>  <SeqNum>  (33) 
1306

>  <Name>  (33) 
GLYCEROL

>  <SystematicName>  (33) 
propane-1,2,3-triol

>  <Synonyms>  (33) 
GLYCERIN; PROPANE-1,2,3-TRIOL

>  <Type>  (33) 
NON-POLYMER

>  <Formula>  (33) 
C3 H8 O3

>  <ObservedFormula>  (33) 
C3 O3

>  <MolecularWeight>  (33) 
92.094

>  <ModifiedDate>  (33) 
2011-06-04

>  <Parent>  (33) 


>  <OneLetterCode>  (33) 


>  <SubcomponentList>  (33) 


>  <AmbiguousFlag>  (33) 
N

>  <InsertionCode>  (33) 


>  <InstanceId>  (33) 
4E7R_GOL_G_1306

>  <ChemCompId>  (33) 
GOL

>  <PdbId>  (33) 
4E7R

>  <ResidueNumber>  (33) 
1306

>  <InChI>  (33) 
InChI=1S/C3H8O3/c4-1-3(6)2-5/h3-6H,1-2H2

>  <InChIKey>  (33) 
PEDCQBHIVMGVHV-UHFFFAOYSA-N

>  <SMILES>  (33) 
C(C(CO)O)O

>  <MissingHeavyAtoms>  (33) 
0

>  <Model>  (33) 
1

>  <AltIds>  (33) 


>  <pKI>  (33) 
4.82

>  <ChemblID>  (33) 
CHEMBL327715

>  <standardized_canonical_smiles>  (33) 
N=C(N)c1ccc2nc(-c3cccc(-c4ccccc4)c3O)[nH]c2c1

$$$$
1O5G_CR9_H_393
     RDKit          3D

 28 31  0  0  0  0  0  0  0  0999 V2000
   11.8230  -11.7600   22.8690 C   0  0  0  0  0  0  0  0  0  0  0  0
   12.4000  -10.5120   22.4960 C   0  0  0  0  0  0  0  0  0  0  0  0
   12.1890   -9.3710   23.2090 F   0  0  0  0  0  0  0  0  0  0  0  0
   13.2330  -10.3900   21.3930 C   0  0  0  0  0  0  0  0  0  0  0  0
   13.4890  -11.5140   20.6660 C   0  0  0  0  0  0  0  0  0  0  0  0
   12.9610  -12.7310   20.9770 C   0  0  0  0  0  0  0  0  0  0  0  0
   12.1200  -12.8870   22.0800 C   0  0  0  0  0  0  0  0  0  0  0  0
   10.9690  -11.8780   23.9930 C   0  0  0  0  0  0  0  0  0  0  0  0
   10.3460  -13.0050   24.2180 N   0  0  0  0  0  0  0  0  0  0  0  0
   10.7760  -10.8740   24.8380 N   0  0  0  0  0  0  0  0  0  0  0  0
   14.2140  -11.7010   19.6210 N   0  0  0  0  0  0  0  0  0  0  0  0
   13.3450  -13.6740   20.1400 N   0  0  0  0  0  0  0  0  0  0  0  0
   14.1280  -12.9760   19.3080 C   0  0  0  0  0  0  0  0  0  0  0  0
   14.8170  -13.5360   18.2150 C   0  0  0  0  0  0  0  0  0  0  0  0
   14.7180  -14.9040   17.9350 C   0  0  0  0  0  0  0  0  0  0  0  0
   15.4060  -15.4600   16.8640 C   0  0  0  0  0  0  0  0  0  0  0  0
   16.1950  -14.6660   16.0530 C   0  0  0  0  0  0  0  0  0  0  0  0
   16.3190  -13.2970   16.3040 C   0  0  0  0  0  0  0  0  0  0  0  0
   15.6230  -12.7270   17.3890 C   0  0  0  0  0  0  0  0  0  0  0  0
   15.7140  -11.3680   17.6510 O   0  0  0  0  0  0  0  0  0  0  0  0
   17.1190  -12.5060   15.4870 O   0  0  0  0  0  0  0  0  0  0  0  0
   18.3140  -12.2050   13.3370 C   0  0  0  0  0  0  0  0  0  0  0  0
   19.3120  -11.0340   13.2760 C   0  0  0  0  0  0  0  0  0  0  0  0
   20.7350  -11.5510   13.5690 C   0  0  0  0  0  0  0  0  0  0  0  0
   20.7700  -12.5380   14.8000 C   0  0  0  0  0  0  0  0  0  0  0  0
   19.4830  -12.4310   15.6530 C   0  0  0  0  0  0  0  0  0  0  0  0
   18.3040  -12.8950   14.7810 C   0  0  0  0  0  0  0  0  0  0  0  0
   16.9210  -11.6870   12.9290 C   0  0  0  0  0  0  0  0  0  0  0  0
  2  1  2  0
  7  1  1  0
  8  1  1  0
  3  2  1  0
  4  2  1  0
  5  4  2  0
  6  5  1  0
 11  5  1  0
  7  6  2  0
 12  6  1  0
  9  8  1  0
 10  8  2  0
 13 11  1  0
 13 12  2  0
 14 13  1  0
 15 14  2  0
 19 14  1  0
 16 15  1  0
 17 16  2  0
 18 17  1  0
 19 18  2  0
 21 18  1  0
 20 19  1  0
 27 21  1  0
 23 22  1  0
 27 22  1  0
 28 22  1  0
 24 23  1  0
 25 24  1  0
 26 25  1  0
 27 26  1  0
M  CHG  2  10   1  20  -1
A    1
C1
A    2
C2
A    3
F2
A    4
C3
A    5
C4
A    6
C5
A    7
C6
A    8
C7
A    9
N1
A   10
N2
A   11
N3
A   12
N4
A   13
C8
A   14
C1'
A   15
C2'
A   16
C3'
A   17
C4'
A   18
C5'
A   19
C6'
A   20
O6'
A   21
O5'
A   22
C1B
A   23
C2B
A   24
C3B
A   25
C4B
A   26
C5B
A   27
C6B
A   28
C1A
M  END
>  <Id>  (34) 
1O5G_CR9_H_393

>  <ChainId>  (34) 
H

>  <AsymId>  (34) 
F

>  <SeqNum>  (34) 
393

>  <Name>  (34) 
2-{5-[AMINO(IMINIO)METHYL]-6-FLUORO-1H-BENZIMIDAZOL-2-YL}-6-[(2-METHYLCYCLOHEXYL)OXY]BENZENOLATE

>  <SystematicName>  (34) 
2-[5-(amino-azaniumylidene-methyl)-6-fluoro-1H-benzimidazol-2-yl]-6-[(1S,2S)-2-methylcyclohexyl]oxy-phenolate

>  <Synonyms>  (34) 
CRA_11092

>  <Type>  (34) 
NON-POLYMER

>  <Formula>  (34) 
C21 H23 F N4 O2

>  <ObservedFormula>  (34) 
C21 F N4 O2

>  <MolecularWeight>  (34) 
382.431

>  <ModifiedDate>  (34) 
2011-06-04

>  <Parent>  (34) 


>  <OneLetterCode>  (34) 


>  <SubcomponentList>  (34) 


>  <AmbiguousFlag>  (34) 
N

>  <InsertionCode>  (34) 


>  <InstanceId>  (34) 
1O5G_CR9_H_393

>  <ChemCompId>  (34) 
CR9

>  <PdbId>  (34) 
1O5G

>  <ResidueNumber>  (34) 
393

>  <InChI>  (34) 
InChI=1S/C21H23FN4O2/c1-11-5-2-3-7-17(11)28-18-8-4-6-12(19(18)27)21-25-15-9-13(20(23)24)14(22)10-16(15)26-21/h4,6,8-11,17,27H,2-3,5,7H2,1H3,(H3,23,24)(H,25,26)/t11-,17-/m0/s1

>  <InChIKey>  (34) 
CMCDWLMEDRBWIR-GTNSWQLSSA-N

>  <SMILES>  (34) 
C[C@H]1CCCC[C@@H]1Oc2cccc(c2[O-])c3[nH]c4cc(c(cc4n3)C(=[NH2+])N)F

>  <MissingHeavyAtoms>  (34) 
0

>  <Model>  (34) 
1

>  <AltIds>  (34) 


>  <pKI>  (34) 
4.96

>  <ChemblID>  (34) 
CHEMBL62807

>  <standardized_canonical_smiles>  (34) 
C[C@H]1CCCC[C@@H]1Oc1cccc(-c2nc3cc(F)c(C(=N)N)cc3[nH]2)c1O

$$$$
2ZFF_53U_H_2001
     RDKit          3D

 26 28  0  0  0  0  0  0  0  0999 V2000
   16.3900  -15.7830   23.1600 N   0  0  0  0  0  0  0  0  0  0  0  0
   17.6570  -15.0120   23.1460 C   0  0  0  0  0  0  0  0  0  0  0  0
   17.4360  -13.6310   22.5680 C   0  0  0  0  0  0  0  0  0  0  0  0
   16.5060  -12.9450   23.0320 O   0  0  0  0  0  0  0  0  0  0  0  0
   18.1720  -14.9170   24.5950 C   0  0  0  0  0  0  0  0  0  0  0  0
   19.5920  -14.3710   24.7440 C   0  0  0  0  0  0  0  0  0  0  0  0
   20.6910  -14.9640   24.0890 C   0  0  0  0  0  0  0  0  0  0  0  0
   19.8220  -13.2490   25.5510 C   0  0  0  0  0  0  0  0  0  0  0  0
   21.9860  -14.4540   24.2350 C   0  0  0  0  0  0  0  0  0  0  0  0
   21.1010  -12.7410   25.6970 C   0  0  0  0  0  0  0  0  0  0  0  0
   22.1890  -13.3330   25.0460 C   0  0  0  0  0  0  0  0  0  0  0  0
   18.2450  -13.1710   21.5890 N   0  0  0  0  0  0  0  0  0  0  0  0
   18.0280  -11.8220   21.0620 C   0  0  0  0  0  0  0  0  0  0  0  0
   16.6090  -11.7290   20.5280 C   0  0  0  0  0  0  0  0  0  0  0  0
   16.2150  -12.7280   19.9260 O   0  0  0  0  0  0  0  0  0  0  0  0
   18.9440  -11.8950   19.8030 C   0  0  0  0  0  0  0  0  0  0  0  0
   20.1040  -12.7670   20.3170 C   0  0  0  0  0  0  0  0  0  0  0  0
   19.3760  -13.9390   21.0230 C   0  0  0  0  0  0  0  0  0  0  0  0
   15.9710  -10.5760   20.7540 N   0  0  0  0  0  0  0  0  0  0  0  0
   14.6590  -10.4300   20.1130 C   0  0  0  0  0  0  0  0  0  0  0  0
   13.5670  -10.4920   21.1900 C   0  0  0  0  0  0  0  0  0  0  0  0
   13.3860   -9.3970   22.0370 C   0  0  0  0  0  0  0  0  0  0  0  0
   12.4020   -9.4430   23.0150 C   0  0  0  0  0  0  0  0  0  0  0  0
   11.5890  -10.5670   23.1640 C   0  0  0  0  0  0  0  0  0  0  0  0
   11.7790  -11.6630   22.3090 C   0  0  0  0  0  0  0  0  0  0  0  0
   12.7700  -11.6130   21.3270 C   0  0  0  0  0  0  0  0  0  0  0  0
  2  1  1  0
  3  2  1  0
  5  2  1  0
  4  3  2  0
 12  3  1  0
  6  5  1  0
  7  6  2  0
  8  6  1  0
  9  7  1  0
 10  8  2  0
 11  9  2  0
 11 10  1  0
 13 12  1  0
 18 12  1  0
 14 13  1  0
 16 13  1  0
 15 14  2  0
 19 14  1  0
 17 16  1  0
 18 17  1  0
 20 19  1  0
 21 20  1  0
 22 21  2  0
 26 21  1  0
 23 22  1  0
 24 23  2  0
 25 24  1  0
 26 25  2  0
A    1
N1
A    2
C2
A    3
C3
A    4
O1
A    5
C1
A    6
C16
A    7
C17
A    8
C21
A    9
C18
A   10
C20
A   11
C19
A   12
N2
A   13
C7
A   14
C8
A   15
O2
A   16
C6
A   17
C5
A   18
C4
A   19
N3
A   20
C9
A   21
C10
A   22
C11
A   23
C12
A   24
C13
A   25
C14
A   26
C15
M  END
>  <Id>  (35) 
2ZFF_53U_H_2001

>  <ChainId>  (35) 
H

>  <AsymId>  (35) 
F

>  <SeqNum>  (35) 
2001

>  <Name>  (35) 
D-phenylalanyl-N-benzyl-L-prolinamide

>  <SystematicName>  (35) 
(2S)-1-[(2R)-2-azanyl-3-phenyl-propanoyl]-N-(phenylmethyl)pyrrolidine-2-carboxamide

>  <Synonyms>  (35) 
(2S)-1-((2R)-2-amino-3-phenyl-propanoyl)-N-(phenylmethyl)pyrrolidine-2-carboxamide

>  <Type>  (35) 
peptide-like

>  <Formula>  (35) 
C21 H25 N3 O2

>  <ObservedFormula>  (35) 
C21 N3 O2

>  <MolecularWeight>  (35) 
351.442

>  <ModifiedDate>  (35) 
2011-06-04

>  <Parent>  (35) 


>  <OneLetterCode>  (35) 


>  <SubcomponentList>  (35) 
DPN PRO ABN

>  <AmbiguousFlag>  (35) 
N

>  <InsertionCode>  (35) 


>  <InstanceId>  (35) 
2ZFF_53U_H_2001

>  <ChemCompId>  (35) 
53U

>  <PdbId>  (35) 
2ZFF

>  <ResidueNumber>  (35) 
2001

>  <InChI>  (35) 
InChI=1S/C21H25N3O2/c22-18(14-16-8-3-1-4-9-16)21(26)24-13-7-12-19(24)20(25)23-15-17-10-5-2-6-11-17/h1-6,8-11,18-19H,7,12-15,22H2,(H,23,25)/t18-,19+/m1/s1

>  <InChIKey>  (35) 
MEPJWLFTTFHOQO-MOPGFXCFSA-N

>  <SMILES>  (35) 
c1ccc(cc1)C[C@H](C(=O)N2CCC[C@H]2C(=O)NCc3ccccc3)N

>  <MissingHeavyAtoms>  (35) 
0

>  <Model>  (35) 
1

>  <AltIds>  (35) 


>  <pKI>  (35) 
5.34

>  <ChemblID>  (35) 
CHEMBL116597

>  <standardized_canonical_smiles>  (35) 
N[C@H](Cc1ccccc1)C(=O)N1CCC[C@H]1C(=O)NCc1ccccc1

$$$$
1T4V_14A_H_1411
     RDKit          3D

 27 28  0  0  0  0  0  0  0  0999 V2000
   10.2210  -12.9420   24.4940 N   0  0  0  0  0  0  0  0  0  0  0  0
   11.0380  -11.9630   24.1390 C   0  0  0  0  0  0  0  0  0  0  0  0
   10.8990  -10.7420   24.6420 N   0  0  0  0  0  0  0  0  0  0  0  0
   11.9500  -12.1800   23.2230 N   0  0  0  0  0  0  0  0  0  0  0  0
   12.9320  -11.3150   22.9410 O   0  0  0  0  0  0  0  0  0  0  0  0
   12.8750  -10.7330   21.6190 C   0  0  0  0  0  0  0  0  0  0  0  0
   13.4390  -11.7160   20.5680 C   0  0  0  0  0  0  0  0  0  0  0  0
   14.9370  -11.9080   20.6760 C   0  0  0  0  0  0  0  0  0  0  0  0
   15.1530  -12.9450   21.6270 O   0  0  0  0  0  0  0  0  0  0  0  0
   16.4310  -13.4820   21.6420 C   0  0  0  0  0  0  0  0  0  0  0  0
   17.4660  -12.9730   20.8410 C   0  0  0  0  0  0  0  0  0  0  0  0
   18.7500  -13.5690   20.9110 C   0  0  0  0  0  0  0  0  0  0  0  0
   18.9680  -14.6250   21.7400 C   0  0  0  0  0  0  0  0  0  0  0  0
   17.9680  -15.1090   22.5250 C   0  0  0  0  0  0  0  0  0  0  0  0
   16.7010  -14.5660   22.4860 C   0  0  0  0  0  0  0  0  0  0  0  0
   20.0380  -12.9820   19.9780 Cl  0  0  0  0  0  0  0  0  0  0  0  0
   18.2570  -16.2700   23.3980 C   0  0  0  0  0  0  0  0  0  0  0  0
   17.4590  -17.2030   23.2970 O   0  0  0  0  0  0  0  0  0  0  0  0
   19.2560  -16.3480   24.3080 N   0  0  0  0  0  0  0  0  0  0  0  0
   19.2990  -17.5030   25.2690 C   0  0  0  0  0  0  0  0  0  0  0  0
   18.0340  -17.8510   26.0680 C   0  0  0  0  0  0  0  0  0  0  0  0
   18.0230  -18.3200   27.3020 C   0  0  0  0  0  0  0  0  0  0  0  0
   19.7830  -15.0070   24.6680 C   0  0  0  0  0  0  0  0  0  0  0  0
   21.3050  -15.1490   24.5490 C   0  0  0  0  0  0  0  0  0  0  0  0
   21.9790  -14.5420   25.7180 C   0  0  0  0  0  0  0  0  0  0  0  0
   20.9150  -14.4310   26.7970 C   0  0  0  0  0  0  0  0  0  0  0  0
   19.6230  -14.9140   26.1870 C   0  0  0  0  0  0  0  0  0  0  0  0
  2  1  2  0
  3  2  1  0
  4  2  1  0
  5  4  1  0
  6  5  1  0
  7  6  1  0
  8  7  1  0
  9  8  1  0
 10  9  1  0
 11 10  2  0
 15 10  1  0
 12 11  1  0
 13 12  2  0
 16 12  1  0
 14 13  1  0
 15 14  2  0
 17 14  1  0
 18 17  2  0
 19 17  1  0
 20 19  1  0
 23 19  1  0
 21 20  1  0
 22 21  2  0
 24 23  1  0
 27 23  1  0
 25 24  1  0
 26 25  1  0
 27 26  1  0
A    1
N1
A    2
C2
A    3
N3
A    4
N4
A    5
O5
A    6
C6
A    7
C7
A    8
C8
A    9
O9
A   10
C10
A   11
C11
A   12
C12
A   13
C13
A   14
C14
A   15
C15
A   16
CL16
A   17
C17
A   18
O18
A   19
N19
A   20
C20
A   21
C21
A   22
C22
A   23
C23
A   24
C24
A   25
C25
A   26
C26
A   27
C27
M  END
>  <Id>  (36) 
1T4V_14A_H_1411

>  <ChainId>  (36) 
H

>  <AsymId>  (36) 
D

>  <SeqNum>  (36) 
1411

>  <Name>  (36) 
N-ALLYL-5-AMIDINOAMINOOXY-PROPYLOXY-3-CHLORO-N-CYCLOPENTYLBENZAMIDE

>  <SystematicName>  (36) 
3-(3-carbamimidamidooxypropoxy)-5-chloro-N-cyclopentyl-N-prop-2-enyl-benzamide

>  <Synonyms>  (36) 


>  <Type>  (36) 
NON-POLYMER

>  <Formula>  (36) 
C19 H27 Cl N4 O3

>  <ObservedFormula>  (36) 
C19 Cl N4 O3

>  <MolecularWeight>  (36) 
394.896

>  <ModifiedDate>  (36) 
2011-06-04

>  <Parent>  (36) 


>  <OneLetterCode>  (36) 


>  <SubcomponentList>  (36) 


>  <AmbiguousFlag>  (36) 
N

>  <InsertionCode>  (36) 


>  <InstanceId>  (36) 
1T4V_14A_H_1411

>  <ChemCompId>  (36) 
14A

>  <PdbId>  (36) 
1T4V

>  <ResidueNumber>  (36) 
1411

>  <InChI>  (36) 
InChI=1S/C19H27ClN4O3/c1-2-8-24(16-6-3-4-7-16)18(25)14-11-15(20)13-17(12-14)26-9-5-10-27-23-19(21)22/h2,11-13,16H,1,3-10H2,(H4,21,22,23)

>  <InChIKey>  (36) 
XWIUMAPBZWNFNV-UHFFFAOYSA-N

>  <SMILES>  (36) 
C=CCN(C1CCCC1)C(=O)c2cc(cc(c2)Cl)OCCCONC(=N)N

>  <MissingHeavyAtoms>  (36) 
0

>  <Model>  (36) 
1

>  <AltIds>  (36) 


>  <pKI>  (36) 
7.68

>  <ChemblID>  (36) 
CHEMBL123440

>  <standardized_canonical_smiles>  (36) 
C=CCN(C(=O)c1cc(Cl)cc(OCCCON=C(N)N)c1)C1CCCC1

$$$$
1MU6_CDA_B_248
     RDKit          3D

 31 33  0  0  0  0  0  0  0  0999 V2000
   21.0030  -16.5290   25.1660 N   0  0  0  0  0  0  0  0  0  0  0  0
   19.9150  -15.9270   25.8320 C   0  0  0  0  0  0  0  0  0  0  0  0
   20.0020  -14.5590   26.3240 C   0  0  0  0  0  0  0  0  0  0  0  0
   21.2530  -13.8830   26.0790 C   0  0  0  0  0  0  0  0  0  0  0  0
   22.3420  -14.5410   25.3720 C   0  0  0  0  0  0  0  0  0  0  0  0
   22.2100  -15.9040   24.9070 C   0  0  0  0  0  0  0  0  0  0  0  0
   18.6310  -16.7480   25.9420 C   0  0  0  0  0  0  0  0  0  0  0  0
   18.0830  -17.1760   24.5920 C   0  0  0  0  0  0  0  0  0  0  0  0
   17.6280  -16.1140   26.5880 F   0  0  0  0  0  0  0  0  0  0  0  0
   18.9320  -17.8750   26.6020 F   0  0  0  0  0  0  0  0  0  0  0  0
   17.4760  -16.0450   23.8730 N   0  0  0  0  0  0  0  0  0  0  0  0
   18.0880  -15.3250   22.8760 C   0  0  0  0  0  0  0  0  0  0  0  0
   17.4500  -14.0430   22.4650 C   0  0  0  0  0  0  0  0  0  0  0  0
   18.0980  -13.3440   21.4690 N   0  0  0  0  0  0  0  0  0  0  0  0
   19.3180  -13.8330   20.8740 C   0  0  0  0  0  0  0  0  0  0  0  0
   19.8710  -15.0400   21.3370 C   0  0  0  0  0  0  0  0  0  0  0  0
   19.2510  -15.7300   22.2940 N   0  0  0  0  0  0  0  0  0  0  0  0
   16.4120  -13.6170   22.9680 O   0  0  0  0  0  0  0  0  0  0  0  0
   20.0270  -13.1170   19.7930 C   0  0  0  0  0  0  0  0  0  0  0  0
   17.4940  -12.0810   21.0030 C   0  0  0  0  0  0  0  0  0  0  0  0
   16.0640  -12.2970   20.5380 C   0  0  0  0  0  0  0  0  0  0  0  0
   15.1990  -11.3330   20.9400 N   0  0  0  0  0  0  0  0  0  0  0  0
   15.7760  -13.2640   19.8350 O   0  0  0  0  0  0  0  0  0  0  0  0
   13.7930  -11.3680   20.5230 C   0  0  0  0  0  0  0  0  0  0  0  0
   12.8490  -11.3470   21.7030 C   0  0  0  0  0  0  0  0  0  0  0  0
   11.8640  -12.3760   21.8290 C   0  0  0  0  0  0  0  0  0  0  0  0
   10.9730  -12.3960   22.9570 C   0  0  0  0  0  0  0  0  0  0  0  0
   11.0960  -11.3520   23.9430 C   0  0  0  0  0  0  0  0  0  0  0  0
   12.9510  -10.3500   22.6580 N   0  0  0  0  0  0  0  0  0  0  0  0
   11.8270  -13.2730   20.8440 F   0  0  0  0  0  0  0  0  0  0  0  0
   12.1070  -10.3310   23.7580 C   0  0  0  0  0  0  0  0  0  0  0  0
  2  1  2  0
  6  1  1  0
  3  2  1  0
  7  2  1  0
  4  3  2  0
  5  4  1  0
  6  5  2  0
  8  7  1  0
  9  7  1  0
 10  7  1  0
 11  8  1  0
 12 11  1  0
 13 12  1  0
 17 12  2  0
 14 13  1  0
 18 13  2  0
 15 14  1  0
 20 14  1  0
 16 15  2  0
 19 15  1  0
 17 16  1  0
 21 20  1  0
 22 21  1  0
 23 21  2  0
 24 22  1  0
 25 24  1  0
 26 25  2  0
 29 25  1  0
 27 26  1  0
 30 26  1  0
 28 27  2  0
 31 28  1  0
 31 29  2  0
A    1
N1
A    2
C2
A    3
C3
A    4
C4
A    5
C5
A    6
C6
A    7
C11
A    8
C12
A    9
F13
A   10
F1
A   11
N18
A   12
C21
A   13
C22
A   14
N23
A   15
C24
A   16
C25
A   17
N26
A   18
O28
A   19
C29
A   20
C33
A   21
C34
A   22
N37
A   23
O38
A   24
C39
A   25
C40
A   26
C43
A   27
C44
A   28
C45
A   29
N46
A   30
F47
A   31
C50
M  END
>  <Id>  (37) 
1MU6_CDA_B_248

>  <ChainId>  (37) 
B

>  <AsymId>  (37) 
D

>  <SeqNum>  (37) 
248

>  <Name>  (37) 
2-(6-CHLORO-3-{[2,2-DIFLUORO-2-(2-PYRIDINYL)ETHYL]AMINO}-2-OXO-1(2H)-PYRAZINYL)-N-[(2-FLUORO-6-PYRIDINYL)METHYL]ACETAMIDE

>  <SystematicName>  (37) 
2-[3-[(2,2-difluoro-2-pyridin-2-yl-ethyl)amino]-6-methyl-2-oxo-pyrazin-1-yl]-N-[(3-fluoropyridin-2-yl)methyl]ethanamide

>  <Synonyms>  (37) 


>  <Type>  (37) 
NON-POLYMER

>  <Formula>  (37) 
C20 H19 F3 N6 O2

>  <ObservedFormula>  (37) 
C20 F3 N6 O2

>  <MolecularWeight>  (37) 
432.399

>  <ModifiedDate>  (37) 
2011-06-04

>  <Parent>  (37) 


>  <OneLetterCode>  (37) 


>  <SubcomponentList>  (37) 


>  <AmbiguousFlag>  (37) 
N

>  <InsertionCode>  (37) 


>  <InstanceId>  (37) 
1MU6_CDA_B_248

>  <ChemCompId>  (37) 
CDA

>  <PdbId>  (37) 
1MU6

>  <ResidueNumber>  (37) 
248

>  <InChI>  (37) 
InChI=1S/C20H19F3N6O2/c1-13-9-27-18(28-12-20(22,23)16-6-2-3-7-25-16)19(31)29(13)11-17(30)26-10-15-14(21)5-4-8-24-15/h2-9H,10-12H2,1H3,(H,26,30)(H,27,28)

>  <InChIKey>  (37) 
JXHWVKOKYDAROD-UHFFFAOYSA-N

>  <SMILES>  (37) 
CC1=CN=C(C(=O)N1CC(=O)NCc2c(cccn2)F)NCC(c3ccccn3)(F)F

>  <MissingHeavyAtoms>  (37) 
0

>  <Model>  (37) 
1

>  <AltIds>  (37) 


>  <pKI>  (37) 
8.38

>  <ChemblID>  (37) 
CHEMBL141889

>  <standardized_canonical_smiles>  (37) 
Cc1cnc(NCC(F)(F)c2ccccn2)c(=O)n1CC(=O)NCc1ncccc1F

$$$$
1ZGI_382_A_1001
     RDKit          3D

 32 36  0  0  0  0  0  0  0  0999 V2000
   22.3230  -14.2910   25.6190 C   0  0  0  0  0  0  0  0  0  0  0  0
   22.0110  -14.9860   24.2840 C   0  0  0  0  0  0  0  0  0  0  0  0
   21.0480  -16.1020   24.5080 N   0  0  0  0  0  0  0  0  0  0  0  0
   19.7680  -15.6610   25.1350 C   0  0  0  0  0  0  0  0  0  0  0  0
   20.0600  -15.0240   26.4980 C   0  0  0  0  0  0  0  0  0  0  0  0
   21.0240  -13.8280   26.3050 C   0  0  0  0  0  0  0  0  0  0  0  0
   18.7190  -16.8040   25.1620 C   0  0  0  0  0  0  0  0  0  0  0  0
   19.2670  -18.0340   25.3410 F   0  0  0  0  0  0  0  0  0  0  0  0
   17.8050  -16.5990   26.1480 F   0  0  0  0  0  0  0  0  0  0  0  0
   18.0010  -16.8490   23.8070 C   0  0  0  0  0  0  0  0  0  0  0  0
   17.4150  -15.5460   23.4030 N   0  0  0  0  0  0  0  0  0  0  0  0
   17.8610  -14.8050   22.2800 C   0  0  0  0  0  0  0  0  0  0  0  0
   17.0050  -13.8380   21.6540 C   0  0  0  0  0  0  0  0  0  0  0  0
   17.4730  -13.1050   20.5270 C   0  0  0  0  0  0  0  0  0  0  0  0
   18.8440  -13.3810   20.0340 C   0  0  0  0  0  0  0  0  0  0  0  0
   19.7160  -14.3780   20.6870 C   0  0  0  0  0  0  0  0  0  0  0  0
   19.1710  -15.0470   21.8000 N   0  0  0  0  0  0  0  0  0  0  0  0
   15.7100  -13.3970   21.8900 N   0  0  0  0  0  0  0  0  0  0  0  0
   15.4580  -12.4320   20.9190 C   0  0  0  0  0  0  0  0  0  0  0  0
   16.5440  -12.2110   20.0760 O   0  0  0  0  0  0  0  0  0  0  0  0
   14.1350  -11.6760   20.7150 C   0  0  0  0  0  0  0  0  0  0  0  0
   13.0240  -11.7240   21.7700 C   0  0  0  0  0  0  0  0  0  0  0  0
   12.9160  -10.4860   22.5640 C   0  0  0  0  0  0  0  0  0  0  0  0
   11.8770  -10.3870   23.5960 C   0  0  0  0  0  0  0  0  0  0  0  0
   10.9660  -11.5370   23.7640 C   0  0  0  0  0  0  0  0  0  0  0  0
   11.0880  -12.7730   22.9610 C   0  0  0  0  0  0  0  0  0  0  0  0
   12.1470  -12.8950   21.9490 C   0  0  0  0  0  0  0  0  0  0  0  0
   12.3340  -14.1540   21.2840 N   0  0  0  0  0  0  0  0  0  0  0  0
   12.6160  -15.3380   21.9060 N   0  0  0  0  0  0  0  0  0  0  0  0
   12.6910  -16.3250   20.9570 C   0  0  0  0  0  0  0  0  0  0  0  0
   12.4480  -15.7450   19.7450 N   0  0  0  0  0  0  0  0  0  0  0  0
   12.2270  -14.4050   19.9490 C   0  0  0  0  0  0  0  0  0  0  0  0
  2  1  1  0
  6  1  1  0
  3  2  1  0
  4  3  1  0
  5  4  1  0
  7  4  1  0
  6  5  1  0
  8  7  1  0
  9  7  1  0
 10  7  1  0
 11 10  1  0
 12 11  1  0
 13 12  2  0
 17 12  1  0
 14 13  1  0
 18 13  1  0
 15 14  2  0
 20 14  1  0
 16 15  1  0
 17 16  2  0
 19 18  2  0
 20 19  1  0
 21 19  1  0
 22 21  1  0
 23 22  2  0
 27 22  1  0
 24 23  1  0
 25 24  2  0
 26 25  1  0
 27 26  2  0
 28 27  1  0
 29 28  1  0
 32 28  1  0
 30 29  2  0
 31 30  1  0
 32 31  2  0
A    1
C1
A    2
C2
A    3
N3
A    4
C4
A    5
C5
A    6
C6
A    7
C15
A    8
F17
A    9
F18
A   10
C19
A   11
N20
A   12
C23
A   13
C24
A   14
C25
A   15
C26
A   16
C27
A   17
N28
A   18
N31
A   19
C32
A   20
O33
A   21
C34
A   22
C36
A   23
C39
A   24
C40
A   25
C41
A   26
C42
A   27
C43
A   28
N48
A   29
N49
A   30
C50
A   31
N51
A   32
C52
M  END
>  <Id>  (38) 
1ZGI_382_A_1001

>  <ChainId>  (38) 
A

>  <AsymId>  (38) 
C

>  <SeqNum>  (38) 
1001

>  <Name>  (38) 
(R)-2-(2-(1H-1,2,4-TRIAZOL-1-YL)BENZYL)-N-(2,2-DIFLUORO-2-(PIPERIDIN-2-YL)ETHYL)OXAZOLO[4,5-C]PYRIDIN-4-AMINE

>  <SystematicName>  (38) 
N-[2,2-difluoro-2-[(2R)-piperidin-2-yl]ethyl]-2-[[2-(1,2,4-triazol-1-yl)phenyl]methyl]-[1,3]oxazolo[4,5-c]pyridin-4-amine

>  <Synonyms>  (38) 
N-{2,2-DIFLUORO-2-[(2R)-PIPERIDIN-2-YL]ETHYL}-2-[2-(1H-1,2,4-TRIAZOL-1-YL)BENZYL][1,3]OXAZOLO[4,5-C]PYRIDIN-4-AMINE

>  <Type>  (38) 
NON-POLYMER

>  <Formula>  (38) 
C22 H23 F2 N7 O

>  <ObservedFormula>  (38) 
C22 F2 N7 O

>  <MolecularWeight>  (38) 
439.461

>  <ModifiedDate>  (38) 
2011-06-04

>  <Parent>  (38) 


>  <OneLetterCode>  (38) 


>  <SubcomponentList>  (38) 


>  <AmbiguousFlag>  (38) 
N

>  <InsertionCode>  (38) 


>  <InstanceId>  (38) 
1ZGI_382_A_1001

>  <ChemCompId>  (38) 
382

>  <PdbId>  (38) 
1ZGI

>  <ResidueNumber>  (38) 
1001

>  <InChI>  (38) 
InChI=1S/C22H23F2N7O/c23-22(24,18-7-3-4-9-26-18)12-28-21-20-17(8-10-27-21)32-19(30-20)11-15-5-1-2-6-16(15)31-14-25-13-29-31/h1-2,5-6,8,10,13-14,18,26H,3-4,7,9,11-12H2,(H,27,28)/t18-/m1/s1

>  <InChIKey>  (38) 
VYJOAYZRCNHDNG-GOSISDBHSA-N

>  <SMILES>  (38) 
c1ccc(c(c1)Cc2nc3c(o2)ccnc3NCC([C@H]4CCCCN4)(F)F)n5cncn5

>  <MissingHeavyAtoms>  (38) 
0

>  <Model>  (38) 
1

>  <AltIds>  (38) 


>  <pKI>  (38) 
8.34

>  <ChemblID>  (38) 
CHEMBL197984

>  <standardized_canonical_smiles>  (38) 
FC(F)(CNc1nccc2oc(Cc3ccccc3-n3cncn3)nc12)C1CCCCN1

$$$$
1W7G_MIU_H_300
     RDKit          3D

 34 35  0  0  0  0  0  0  0  0999 V2000
   17.1550  -17.2920   21.9850 C   0  0  0  0  0  0  0  0  0  0  0  0
   15.4240  -17.5330   21.9250 S   0  0  0  0  0  0  0  0  0  0  0  0
   14.9270  -18.4420   23.1210 O   0  0  0  0  0  0  0  0  0  0  0  0
   15.0100  -18.2220   20.5560 O   0  0  0  0  0  0  0  0  0  0  0  0
   17.9760  -17.7160   20.9080 C   0  0  0  0  0  0  0  0  0  0  0  0
   19.3800  -17.5020   20.9810 C   0  0  0  0  0  0  0  0  0  0  0  0
   19.9490  -16.8740   22.1240 C   0  0  0  0  0  0  0  0  0  0  0  0
   19.1160  -16.4470   23.2130 C   0  0  0  0  0  0  0  0  0  0  0  0
   19.7500  -15.7570   24.4540 C   0  0  0  0  0  0  0  0  0  0  0  0
   20.6470  -16.5810   25.0600 F   0  0  0  0  0  0  0  0  0  0  0  0
   20.3990  -14.6160   24.0760 F   0  0  0  0  0  0  0  0  0  0  0  0
   18.7940  -15.4200   25.3640 F   0  0  0  0  0  0  0  0  0  0  0  0
   17.7110  -16.6690   23.1270 C   0  0  0  0  0  0  0  0  0  0  0  0
   14.5230  -16.0470   21.9810 N   0  0  0  0  0  0  0  0  0  0  0  0
   14.7640  -15.0710   20.8850 C   0  0  0  0  0  0  0  0  0  0  0  0
   15.9460  -14.0500   21.2480 C   0  0  0  0  0  0  0  0  0  0  0  0
   16.1420  -13.8000   22.4500 O   0  0  0  0  0  0  0  0  0  0  0  0
   13.3380  -14.4880   20.6240 C   0  0  0  0  0  0  0  0  0  0  0  0
   12.6070  -13.7300   21.7600 C   0  0  0  0  0  0  0  0  0  0  0  0
   12.3000  -12.3150   21.2670 C   0  0  0  0  0  0  0  0  0  0  0  0
   11.5910  -11.4370   22.2280 N   0  0  0  0  0  0  0  0  0  0  0  0
   12.1740  -10.8070   23.2440 C   0  0  0  0  0  0  0  0  0  0  0  0
   11.7590  -11.0560   24.4550 N   0  0  0  0  0  0  0  0  0  0  0  0
   13.1420   -9.9390   23.1310 N   0  0  0  0  0  0  0  0  0  0  0  0
   16.7510  -13.4650   20.2720 N   0  0  0  0  0  0  0  0  0  0  0  0
   18.0170  -12.7810   20.5730 C   0  0  0  0  0  0  0  0  0  0  0  0
   19.1040  -13.4510   19.8090 C   0  0  0  0  0  0  0  0  0  0  0  0
   18.7460  -13.4100   18.3240 N   0  0  0  0  0  0  0  0  0  0  0  0
   17.4500  -14.1370   18.0010 C   0  0  0  0  0  0  0  0  0  0  0  0
   16.3150  -13.4990   18.8050 C   0  0  0  0  0  0  0  0  0  0  0  0
   19.5480  -14.4100   17.6120 C   0  0  0  0  0  0  0  0  0  0  0  0
   20.4690  -14.0070   16.4240 C   0  0  0  0  0  0  0  0  0  0  0  0
   20.4480  -12.5070   16.0730 C   0  0  0  0  0  0  0  0  0  0  0  0
   19.0800  -12.1030   15.6960 N   0  0  0  0  0  0  0  0  0  0  0  0
  2  1  1  0
  5  1  2  0
 13  1  1  0
  3  2  2  0
  4  2  2  0
 14  2  1  0
  6  5  1  0
  7  6  2  0
  8  7  1  0
  9  8  1  0
 13  8  2  0
 10  9  1  0
 11  9  1  0
 12  9  1  0
 15 14  1  0
 16 15  1  0
 18 15  1  0
 17 16  2  0
 25 16  1  0
 19 18  1  0
 20 19  1  0
 21 20  1  0
 22 21  2  3
 23 22  1  0
 24 22  1  0
 26 25  1  0
 30 25  1  0
 27 26  1  0
 28 27  1  0
 29 28  1  0
 31 28  1  0
 30 29  1  0
 32 31  1  0
 33 32  1  0
 34 33  1  0
A    1
C1
A    2
S11
A    3
O24
A    4
O25
A    5
C2
A    6
C3
A    7
C4
A    8
C5
A    9
C6
A   10
F61
A   11
F1
A   12
F6
A   13
C10
A   14
N12
A   15
C13
A   16
C14
A   17
O15
A   18
C16
A   19
C17
A   20
C18
A   21
N19
A   22
C20
A   23
N22
A   24
N21
A   25
N26
A   26
C27
A   27
C28
A   28
N29
A   29
C30
A   30
C31
A   31
C32
A   32
C33
A   33
C8
A   34
N9
M  END
>  <Id>  (39) 
1W7G_MIU_H_300

>  <ChainId>  (39) 
H

>  <AsymId>  (39) 
D

>  <SeqNum>  (39) 
300

>  <Name>  (39) 
N-{(1S)-1-{[4-(3-AMINOPROPYL)PIPERAZIN-1-YL]CARBONYL}-4-[(DIAMINOMETHYLENE)AMINO]BUTYL}-3-(TRIFLUOROMETHYL)BENZENESULFONAMIDE

>  <SystematicName>  (39) 
2-[(4S)-5-[4-(3-azanylpropyl)piperazin-1-yl]-5-oxo-4-[[3-(trifluoromethyl)phenyl]sulfonylamino]pentyl]guanidine

>  <Synonyms>  (39) 
L-ARGININE TEMPLATE INHIBITOR CS107

>  <Type>  (39) 
peptide-like

>  <Formula>  (39) 
C20 H32 F3 N7 O3 S

>  <ObservedFormula>  (39) 
C20 S F3 N7 O3

>  <MolecularWeight>  (39) 
507.573

>  <ModifiedDate>  (39) 
2012-01-05

>  <Parent>  (39) 


>  <OneLetterCode>  (39) 


>  <SubcomponentList>  (39) 
025 ARG 026

>  <AmbiguousFlag>  (39) 
N

>  <InsertionCode>  (39) 


>  <InstanceId>  (39) 
1W7G_MIU_H_300

>  <ChemCompId>  (39) 
MIU

>  <PdbId>  (39) 
1W7G

>  <ResidueNumber>  (39) 
300

>  <InChI>  (39) 
InChI=1S/C20H32F3N7O3S/c21-20(22,23)15-4-1-5-16(14-15)34(32,33)28-17(6-2-8-27-19(25)26)18(31)30-12-10-29(11-13-30)9-3-7-24/h1,4-5,14,17,28H,2-3,6-13,24H2,(H4,25,26,27)/t17-/m0/s1

>  <InChIKey>  (39) 
KGJKWHCPJPBEJP-KRWDZBQOSA-N

>  <SMILES>  (39) 
c1cc(cc(c1)S(=O)(=O)N[C@@H](CCCN=C(N)N)C(=O)N2CCN(CC2)CCCN)C(F)(F)F

>  <MissingHeavyAtoms>  (39) 
0

>  <Model>  (39) 
1

>  <AltIds>  (39) 


>  <pKI>  (39) 
5.72

>  <ChemblID>  (39) 
CHEMBL387841

>  <standardized_canonical_smiles>  (39) 
N=C(N)NCCC[C@H](NS(=O)(=O)c1cccc(C(F)(F)F)c1)C(=O)N1CCN(CCCN)CC1

$$$$
2JH5_895_D_1249
     RDKit          3D

 28 30  0  0  0  0  0  0  0  0999 V2000
    9.8460   25.2660   46.2660 Cl  0  0  0  0  0  0  0  0  0  0  0  0
   10.0930   23.7440   47.0190 C   0  0  0  0  0  0  0  0  0  0  0  0
   11.0130   22.7720   46.6030 C   0  0  0  0  0  0  0  0  0  0  0  0
   10.9590   21.6550   47.4570 C   0  0  0  0  0  0  0  0  0  0  0  0
   10.0190   21.7880   48.4920 C   0  0  0  0  0  0  0  0  0  0  0  0
    9.7120   20.7810   49.5520 C   0  0  0  0  0  0  0  0  0  0  0  0
    9.4770   18.1510   50.2600 S   0  0  0  0  0  0  0  0  0  0  0  0
   10.1710   18.2570   51.5080 O   0  0  0  0  0  0  0  0  0  0  0  0
    9.6200   16.9960   49.4270 O   0  0  0  0  0  0  0  0  0  0  0  0
    7.9130   18.4340   50.6100 N   0  0  0  0  0  0  0  0  0  0  0  0
    6.9070   17.9340   49.7000 C   0  0  0  0  0  0  0  0  0  0  0  0
    5.9600   16.9300   50.3840 C   0  0  0  0  0  0  0  0  0  0  0  0
    4.5590   17.2850   49.8640 C   0  0  0  0  0  0  0  0  0  0  0  0
    6.0270   18.9850   49.0710 C   0  0  0  0  0  0  0  0  0  0  0  0
    6.4080   20.0860   48.6950 O   0  0  0  0  0  0  0  0  0  0  0  0
    4.7790   18.4540   49.0060 N   0  0  0  0  0  0  0  0  0  0  0  0
    3.7220   18.9920   48.1480 C   0  0  0  0  0  0  0  0  0  0  0  0
    3.6730   18.1820   46.8430 C   0  0  0  0  0  0  0  0  0  0  0  0
    2.3500   19.0290   48.8330 C   0  0  0  0  0  0  0  0  0  0  0  0
    1.4240   18.3890   48.3260 O   0  0  0  0  0  0  0  0  0  0  0  0
    2.2400   19.7860   49.9960 N   0  0  0  0  0  0  0  0  0  0  0  0
    0.9810   19.7960   50.7500 C   0  0  0  0  0  0  0  0  0  0  0  0
    1.1690   19.7670   52.2710 C   0  0  0  0  0  0  0  0  0  0  0  0
    2.1840   20.6690   52.7120 O   0  0  0  0  0  0  0  0  0  0  0  0
    3.4420   20.4180   52.0890 C   0  0  0  0  0  0  0  0  0  0  0  0
    3.2850   20.6600   50.5780 C   0  0  0  0  0  0  0  0  0  0  0  0
    9.2340   23.2760   48.4210 S   0  0  0  0  0  0  0  0  0  0  0  0
    9.9270   19.4860   49.2390 C   0  0  0  0  0  0  0  0  0  0  0  0
  2  1  1  0
  3  2  2  0
 27  2  1  0
  4  3  1  0
  5  4  2  0
  6  5  1  0
 27  5  1  0
 28  6  2  0
  8  7  2  0
  9  7  2  0
 10  7  1  0
 28  7  1  0
 11 10  1  0
 12 11  1  0
 14 11  1  0
 13 12  1  0
 16 13  1  0
 15 14  2  0
 16 14  1  0
 17 16  1  0
 18 17  1  0
 19 17  1  0
 20 19  2  0
 21 19  1  0
 22 21  1  0
 26 21  1  0
 23 22  1  0
 24 23  1  0
 25 24  1  0
 26 25  1  0
A    1
CL1
A    2
C1
A    3
C2
A    4
C3
A    5
C4
A    6
C9
A    7
S1
A    8
O2
A    9
O1
A   10
N1
A   11
C12
A   12
C13
A   13
C14
A   14
C15
A   15
O3
A   16
N2
A   17
C16
A   18
C17
A   19
C18
A   20
O4
A   21
N3
A   22
C19
A   23
C20
A   24
O5
A   25
C22
A   26
C23
A   27
S6
A   28
C6
M  END
>  <Id>  (40) 
2JH5_895_D_1249

>  <ChainId>  (40) 
D

>  <AsymId>  (40) 
F

>  <SeqNum>  (40) 
1249

>  <Name>  (40) 
2-(5-CHLORO-2-THIENYL)-N-{(3S)-1-[(1S)-1-METHYL-2-MORPHOLIN-4-YL-2-OXOETHYL]-2-OXOPYRROLIDIN-3-YL}ETHENESULFONAMIDE

>  <SystematicName>  (40) 
(E)-2-(5-chlorothiophen-2-yl)-N-[(3S)-1-[(2S)-1-morpholin-4-yl-1-oxo-propan-2-yl]-2-oxo-pyrrolidin-3-yl]ethenesulfonamide

>  <Synonyms>  (40) 


>  <Type>  (40) 
NON-POLYMER

>  <Formula>  (40) 
C17 H22 Cl N3 O5 S2

>  <ObservedFormula>  (40) 
C17 S2 Cl N3 O5

>  <MolecularWeight>  (40) 
447.957

>  <ModifiedDate>  (40) 
2011-06-04

>  <Parent>  (40) 


>  <OneLetterCode>  (40) 


>  <SubcomponentList>  (40) 


>  <AmbiguousFlag>  (40) 


>  <InsertionCode>  (40) 


>  <InstanceId>  (40) 
2JH5_895_D_1249

>  <ChemCompId>  (40) 
895

>  <PdbId>  (40) 
2JH5

>  <ResidueNumber>  (40) 
1249

>  <InChI>  (40) 
InChI=1S/C17H22ClN3O5S2/c1-12(16(22)20-7-9-26-10-8-20)21-6-4-14(17(21)23)19-28(24,25)11-5-13-2-3-15(18)27-13/h2-3,5,11-12,14,19H,4,6-10H2,1H3/b11-5+/t12-,14-/m0/s1

>  <InChIKey>  (40) 
ACEFOQMQINFMRW-DYCFVMESSA-N

>  <SMILES>  (40) 
C[C@@H](C(=O)N1CCOCC1)N2CC[C@@H](C2=O)NS(=O)(=O)\C=C\c3ccc(s3)Cl

>  <MissingHeavyAtoms>  (40) 
0

>  <Model>  (40) 
1

>  <AltIds>  (40) 


>  <pKI>  (40) 
6.44

>  <ChemblID>  (40) 
CHEMBL220050

>  <standardized_canonical_smiles>  (40) 
C[C@@H](C(=O)N1CCOCC1)N1CC[C@H](NS(=O)(=O)/C=C/c2ccc(Cl)s2)C1=O

$$$$
6PXQ_NAG_B_701
     RDKit          3D

 14 14  0  0  0  0  0  0  0  0999 V2000
   22.3770   39.8720   -5.7900 C   0  0  0  0  0  0  0  0  0  0  0  0
   23.9060   39.6960   -5.8200 C   0  0  0  0  0  0  0  0  0  0  0  0
   24.7000   41.0110   -5.6600 C   0  0  0  0  0  0  0  0  0  0  0  0
   24.0750   42.2130   -6.3620 C   0  0  0  0  0  0  0  0  0  0  0  0
   22.5950   42.2740   -6.0010 C   0  0  0  0  0  0  0  0  0  0  0  0
   21.8930   43.5020   -6.5820 C   0  0  0  0  0  0  0  0  0  0  0  0
   24.1290   37.4480   -4.8180 C   0  0  0  0  0  0  0  0  0  0  0  0
   24.6550   36.6780   -3.6360 C   0  0  0  0  0  0  0  0  0  0  0  0
   24.3310   38.7670   -4.7730 N   0  0  0  0  0  0  0  0  0  0  0  0
   26.0220   40.8430   -6.1860 O   0  0  0  0  0  0  0  0  0  0  0  0
   24.7530   43.4260   -5.9860 O   0  0  0  0  0  0  0  0  0  0  0  0
   21.9900   41.0700   -6.4820 O   0  0  0  0  0  0  0  0  0  0  0  0
   22.1400   43.6160   -7.9900 O   0  0  0  0  0  0  0  0  0  0  0  0
   23.5530   36.8960   -5.7450 O   0  0  0  0  0  0  0  0  0  0  0  0
  2  1  1  0
 12  1  1  0
  3  2  1  0
  9  2  1  0
  4  3  1  0
 10  3  1  0
  5  4  1  0
 11  4  1  0
  6  5  1  0
 12  5  1  0
 13  6  1  0
  8  7  1  0
  9  7  1  0
 14  7  2  0
A    1
C1
A    2
C2
A    3
C3
A    4
C4
A    5
C5
A    6
C6
A    7
C7
A    8
C8
A    9
N2
A   10
O3
A   11
O4
A   12
O5
A   13
O6
A   14
O7
M  END
>  <Id>  (41) 
6PXQ_NAG_B_701

>  <ChainId>  (41) 
B

>  <AsymId>  (41) 
C

>  <SeqNum>  (41) 
701

>  <Name>  (41) 
N-ACETYL-D-GLUCOSAMINE

>  <SystematicName>  (41) 
N-[(2R,3R,4R,5S,6R)-6-(hydroxymethyl)-2,4,5-tris(oxidanyl)oxan-3-yl]ethanamide

>  <Synonyms>  (41) 


>  <Type>  (41) 
D-SACCHARIDE

>  <Formula>  (41) 
C8 H15 N O6

>  <ObservedFormula>  (41) 
C8 N O5

>  <MolecularWeight>  (41) 
221.208

>  <ModifiedDate>  (41) 
2019-08-12

>  <Parent>  (41) 


>  <OneLetterCode>  (41) 


>  <SubcomponentList>  (41) 


>  <AmbiguousFlag>  (41) 
N

>  <InsertionCode>  (41) 


>  <InstanceId>  (41) 
6PXQ_NAG_B_701

>  <ChemCompId>  (41) 
NAG

>  <PdbId>  (41) 
6PXQ

>  <ResidueNumber>  (41) 
701

>  <InChI>  (41) 
InChI=1S/C8H15NO6/c1-3(11)9-5-7(13)6(12)4(2-10)15-8(5)14/h4-8,10,12-14H,2H2,1H3,(H,9,11)/t4-,5-,6-,7-,8-/m1/s1

>  <InChIKey>  (41) 
OVRNDRQMDRJTHS-FMDGEEDCSA-N

>  <SMILES>  (41) 
CC(=O)N[C@@H]1[C@H]([C@@H]([C@H](O[C@H]1O)CO)O)O

>  <MissingHeavyAtoms>  (41) 
1

>  <Model>  (41) 
1

>  <AltIds>  (41) 


>  <pKI>  (41) 
8.7

>  <ChemblID>  (41) 
CHEMBL391640

>  <standardized_canonical_smiles>  (41) 
C/C(=C\S(=O)(=O)N[C@H]1CCN([C@@H](C)C(=O)N2CCOCC2)C1=O)c1ccc(Cl)s1

$$$$
3NXP_NAG_A_701
     RDKit          3D

 14 14  0  0  0  0  0  0  0  0999 V2000
   19.2880   -1.7150    6.4280 C   0  0  0  0  0  0  0  0  0  0  0  0
   21.2410    0.2120    8.9330 O   0  0  0  0  0  0  0  0  0  0  0  0
   20.5130    0.2120    7.7200 C   0  0  0  0  0  0  0  0  0  0  0  0
   20.0390   -3.8830    5.0390 O   0  0  0  0  0  0  0  0  0  0  0  0
   18.8550    2.0870    8.4470 C   0  0  0  0  0  0  0  0  0  0  0  0
   17.9070    2.0260    9.4980 O   0  0  0  0  0  0  0  0  0  0  0  0
   19.4570   -4.1250    6.0940 C   0  0  0  0  0  0  0  0  0  0  0  0
   21.7070   -1.4280    6.3670 O   0  0  0  0  0  0  0  0  0  0  0  0
   18.4310    0.4870    6.7700 O   0  0  0  0  0  0  0  0  0  0  0  0
   19.1870   -5.5500    6.5510 C   0  0  0  0  0  0  0  0  0  0  0  0
   20.5460   -1.2280    7.1720 C   0  0  0  0  0  0  0  0  0  0  0  0
   18.0350   -0.8610    6.6510 C   0  0  0  0  0  0  0  0  0  0  0  0
   19.0740    0.6460    8.0000 C   0  0  0  0  0  0  0  0  0  0  0  0
   19.0410   -3.0990    6.8480 N   0  0  0  0  0  0  0  0  0  0  0  0
  3 13  1  0
  1 14  1  0
 11  8  1  0
  5  6  1  0
  3  2  1  0
  1 11  1  0
 12  9  1  0
 11  3  1  0
 13  5  1  0
  7  4  2  0
  7 14  1  0
  7 10  1  0
 13  9  1  0
 12  1  1  0
A    1
C2
A    2
O4
A    3
C4
A    4
O7
A    5
C6
A    6
O6
A    7
C7
A    8
O3
A    9
O5
A   10
C8
A   11
C3
A   12
C1
A   13
C5
A   14
N2
M  END
>  <InstanceId>  (42) 
3NXP_NAG

>  <ChemCompId>  (42) 
NAG

>  <PdbId>  (42) 
3NXP

>  <ChainId>  (42) 
A

>  <ResidueNumber>  (42) 
701

>  <InsertionCode>  (42) 
null

>  <Model>  (42) 
1

>  <AltIds>  (42) 


>  <MissingHeavyAtoms>  (42) 
1

>  <ObservedFormula>  (42) 
C8 N O5

>  <AsymId>  (42) 
B

>  <SeqNum>  (42) 
701

>  <Name>  (42) 
N-ACETYL-D-GLUCOSAMINE

>  <SystematicName>  (42) 
N-[(2R,3R,4R,5S,6R)-6-(hydroxymethyl)-2,4,5-tris(oxidanyl)oxan-3-yl]ethanamide

>  <Synonyms>  (42) 


>  <Type>  (42) 
D-SACCHARIDE

>  <Formula>  (42) 
C8 H15 N O6

>  <MolecularWeight>  (42) 
221.208

>  <ModifiedDate>  (42) 
2012-11-26

>  <Parent>  (42) 


>  <OneLetterCode>  (42) 


>  <SubcomponentList>  (42) 


>  <AmbiguousFlag>  (42) 
N

>  <InChI>  (42) 
InChI=1S/C8H15NO6/c1-3(11)9-5-7(13)6(12)4(2-10)15-8(5)14/h4-8,10,12-14H,2H2,1H3,(H,9,11)/t4-,5-,6-,7-,8-/m1/s1

>  <InChIKey>  (42) 
OVRNDRQMDRJTHS-FMDGEEDCSA-N

>  <SMILES>  (42) 
CC(=O)N[C@@H]1[C@H]([C@@H]([C@H](O[C@H]1O)CO)O)O

>  <pKI>  (42) 
8.7

>  <ChemblID>  (42) 
CHEMBL391640

>  <standardized_canonical_smiles>  (42) 
C/C(=C\S(=O)(=O)N[C@H]1CCN([C@@H](C)C(=O)N2CCOCC2)C1=O)c1ccc(Cl)s1

$$$$
2ZIQ_26U_H_701
     RDKit          3D

 25 26  0  0  0  0  0  0  0  0999 V2000
   19.0120  -14.9240   23.2470 C   0  0  0  0  0  0  0  0  0  0  0  0
   19.4150  -14.5590   24.7030 C   0  0  0  0  0  0  0  0  0  0  0  0
   20.5980  -13.5750   24.9030 C   0  0  0  0  0  0  0  0  0  0  0  0
   21.9850  -14.1370   24.4860 C   0  0  0  0  0  0  0  0  0  0  0  0
   20.6740  -12.9550   26.3300 C   0  0  0  0  0  0  0  0  0  0  0  0
   18.3400  -13.8000   22.4840 C   0  0  0  0  0  0  0  0  0  0  0  0
   17.2650  -13.3520   22.8550 O   0  0  0  0  0  0  0  0  0  0  0  0
   18.8810  -13.2880   21.4270 N   0  0  0  0  0  0  0  0  0  0  0  0
   18.3780  -12.0150   20.9900 C   0  0  0  0  0  0  0  0  0  0  0  0
   16.9860  -12.1250   20.3640 C   0  0  0  0  0  0  0  0  0  0  0  0
   16.7040  -13.2170   19.9040 O   0  0  0  0  0  0  0  0  0  0  0  0
   19.4130  -11.7270   19.8710 C   0  0  0  0  0  0  0  0  0  0  0  0
   20.4230  -12.8830   19.8270 C   0  0  0  0  0  0  0  0  0  0  0  0
   20.1350  -13.8650   20.9650 C   0  0  0  0  0  0  0  0  0  0  0  0
   16.2750  -11.0630   20.3720 N   0  0  0  0  0  0  0  0  0  0  0  0
   14.9520  -11.2010   19.7600 C   0  0  0  0  0  0  0  0  0  0  0  0
   13.8720  -11.0980   20.8590 C   0  0  0  0  0  0  0  0  0  0  0  0
   13.3990  -12.2420   21.4860 C   0  0  0  0  0  0  0  0  0  0  0  0
   12.4290  -12.1800   22.4770 C   0  0  0  0  0  0  0  0  0  0  0  0
   11.9020  -10.9430   22.8680 C   0  0  0  0  0  0  0  0  0  0  0  0
   10.8360  -10.8950   23.9570 C   0  0  0  0  0  0  0  0  0  0  0  0
   10.2130  -11.9940   24.2030 N   0  0  0  0  0  0  0  0  0  0  0  0
   10.6300   -9.7750   24.5530 N   0  0  0  0  0  0  0  0  0  0  0  0
   12.3730   -9.7940   22.2420 C   0  0  0  0  0  0  0  0  0  0  0  0
   13.3500   -9.8530   21.2440 C   0  0  0  0  0  0  0  0  0  0  0  0
  2  1  1  0
  6  1  1  0
  3  2  1  0
  4  3  1  0
  5  3  1  0
  7  6  2  0
  8  6  1  0
  9  8  1  0
 14  8  1  0
 10  9  1  0
 12  9  1  0
 11 10  2  0
 15 10  1  0
 13 12  1  0
 14 13  1  0
 16 15  1  0
 17 16  1  0
 18 17  2  0
 25 17  1  0
 19 18  1  0
 20 19  2  0
 21 20  1  0
 24 20  1  0
 22 21  2  0
 23 21  1  0
 25 24  2  0
A    1
C15
A    2
C33
A    3
C17
A    4
C12
A    5
C49
A    6
C14
A    7
O32
A    8
N1
A    9
C1
A   10
C7
A   11
O22
A   12
C2
A   13
C3
A   14
C4
A   15
N23
A   16
C24
A   17
C25
A   18
C30
A   19
C29
A   20
C28
A   21
C21
A   22
N46
A   23
N47
A   24
C27
A   25
C26
M  END
>  <Id>  (43) 
2ZIQ_26U_H_701

>  <ChainId>  (43) 
H

>  <AsymId>  (43) 
D

>  <SeqNum>  (43) 
701

>  <Name>  (43) 
N-(4-carbamimidoylbenzyl)-1-(4-methylpentanoyl)-L-prolinamide

>  <SystematicName>  (43) 
(2S)-N-[(4-carbamimidoylphenyl)methyl]-1-(4-methylpentanoyl)pyrrolidine-2-carboxamide

>  <Synonyms>  (43) 


>  <Type>  (43) 
NON-POLYMER

>  <Formula>  (43) 
C19 H28 N4 O2

>  <ObservedFormula>  (43) 
C19 N4 O2

>  <MolecularWeight>  (43) 
344.451

>  <ModifiedDate>  (43) 
2012-01-05

>  <Parent>  (43) 


>  <OneLetterCode>  (43) 


>  <SubcomponentList>  (43) 
4MV PRO 00S

>  <AmbiguousFlag>  (43) 
N

>  <InsertionCode>  (43) 


>  <InstanceId>  (43) 
2ZIQ_26U_H_701

>  <ChemCompId>  (43) 
26U

>  <PdbId>  (43) 
2ZIQ

>  <ResidueNumber>  (43) 
701

>  <InChI>  (43) 
InChI=1S/C19H28N4O2/c1-13(2)5-10-17(24)23-11-3-4-16(23)19(25)22-12-14-6-8-15(9-7-14)18(20)21/h6-9,13,16H,3-5,10-12H2,1-2H3,(H3,20,21)(H,22,25)/t16-/m0/s1

>  <InChIKey>  (43) 
AEKJCSNKYXWOAQ-INIZCTEOSA-N

>  <SMILES>  (43) 
[H]/N=C(/c1ccc(cc1)CNC(=O)[C@@H]2CCCN2C(=O)CCC(C)C)\N

>  <MissingHeavyAtoms>  (43) 
0

>  <Model>  (43) 
1

>  <AltIds>  (43) 


>  <pKI>  (43) 
8.7

>  <ChemblID>  (43) 
CHEMBL391640

>  <standardized_canonical_smiles>  (43) 
C/C(=C\S(=O)(=O)N[C@H]1CCN([C@@H](C)C(=O)N2CCOCC2)C1=O)c1ccc(Cl)s1

$$$$
1SHH_NAG_E_701
     RDKit          3D

 15 15  0  0  0  0  0  0  0  0999 V2000
   25.3850   58.0300   94.8120 C   0  0  0  0  0  0  0  0  0  0  0  0
   22.8160   60.5500   93.6660 O   0  0  0  0  0  0  0  0  0  0  0  0
   23.6870   59.4320   93.5640 C   0  0  0  0  0  0  0  0  0  0  0  0
   28.0940   57.7100   95.1930 O   0  0  0  0  0  0  0  0  0  0  0  0
   22.0420   58.1720   92.1090 C   0  0  0  0  0  0  0  0  0  0  0  0
   22.8640   58.3320   90.9620 O   0  0  0  0  0  0  0  0  0  0  0  0
   23.5850   56.6220   95.5330 O   0  0  0  0  0  0  0  0  0  0  0  0
   27.3570   57.7380   96.1790 C   0  0  0  0  0  0  0  0  0  0  0  0
   25.4030   60.4460   94.9240 O   0  0  0  0  0  0  0  0  0  0  0  0
   23.7550   57.0140   93.2940 O   0  0  0  0  0  0  0  0  0  0  0  0
   27.9530   57.6330   97.5720 C   0  0  0  0  0  0  0  0  0  0  0  0
   24.5440   59.3180   94.8300 C   0  0  0  0  0  0  0  0  0  0  0  0
   24.4970   56.8070   94.5050 C   0  0  0  0  0  0  0  0  0  0  0  0
   22.8700   58.1530   93.3770 C   0  0  0  0  0  0  0  0  0  0  0  0
   26.0360   57.8570   96.0990 N   0  0  0  0  0  0  0  0  0  0  0  0
  3 14  1  0
  1 15  1  0
 12  9  1  0
  5  6  1  0
  3  2  1  0
  1 12  1  0
 13 10  1  0
 12  3  1  0
 14  5  1  0
  8  4  2  0
  8 15  1  0
  8 11  1  0
 14 10  1  0
 13  7  1  0
 13  1  1  0
A    1
C2
A    2
O4
A    3
C4
A    4
O7
A    5
C6
A    6
O6
A    7
O1
A    8
C7
A    9
O3
A   10
O5
A   11
C8
A   12
C3
A   13
C1
A   14
C5
A   15
N2
M  END
>  <InstanceId>  (44) 
1SHH_NAG

>  <ChemCompId>  (44) 
NAG

>  <PdbId>  (44) 
1SHH

>  <ChainId>  (44) 
E

>  <ResidueNumber>  (44) 
701

>  <InsertionCode>  (44) 
null

>  <Model>  (44) 
1

>  <AltIds>  (44) 


>  <MissingHeavyAtoms>  (44) 
0

>  <ObservedFormula>  (44) 
C8 N O6

>  <AsymId>  (44) 
G

>  <SeqNum>  (44) 
701

>  <Name>  (44) 
N-ACETYL-D-GLUCOSAMINE

>  <SystematicName>  (44) 
N-[(2R,3R,4R,5S,6R)-6-(hydroxymethyl)-2,4,5-tris(oxidanyl)oxan-3-yl]ethanamide

>  <Synonyms>  (44) 


>  <Type>  (44) 
D-SACCHARIDE

>  <Formula>  (44) 
C8 H15 N O6

>  <MolecularWeight>  (44) 
221.208

>  <ModifiedDate>  (44) 
2012-11-26

>  <Parent>  (44) 


>  <OneLetterCode>  (44) 


>  <SubcomponentList>  (44) 


>  <AmbiguousFlag>  (44) 
N

>  <InChI>  (44) 
InChI=1S/C8H15NO6/c1-3(11)9-5-7(13)6(12)4(2-10)15-8(5)14/h4-8,10,12-14H,2H2,1H3,(H,9,11)/t4-,5-,6-,7-,8-/m1/s1

>  <InChIKey>  (44) 
OVRNDRQMDRJTHS-FMDGEEDCSA-N

>  <SMILES>  (44) 
CC(=O)N[C@@H]1[C@H]([C@@H]([C@H](O[C@H]1O)CO)O)O

>  <pKI>  (44) 
8.7

>  <ChemblID>  (44) 
CHEMBL391640

>  <standardized_canonical_smiles>  (44) 
C/C(=C\S(=O)(=O)N[C@H]1CCN([C@@H](C)C(=O)N2CCOCC2)C1=O)c1ccc(Cl)s1

$$$$
3QTV_GOL_H_1701
     RDKit          3D

  6  5  0  0  0  0  0  0  0  0999 V2000
   16.6730  -11.2450   16.0420 C   0  0  0  0  0  0  0  0  0  0  0  0
   17.7580  -11.2410   15.1800 O   0  0  0  0  0  0  0  0  0  0  0  0
   15.4210  -10.6120   15.4970 C   0  0  0  0  0  0  0  0  0  0  0  0
   14.5470  -10.1340   16.4680 O   0  0  0  0  0  0  0  0  0  0  0  0
   15.7450   -9.6100   14.4100 C   0  0  0  0  0  0  0  0  0  0  0  0
   14.6730   -8.9300   13.8500 O   0  0  0  0  0  0  0  0  0  0  0  0
  2  1  1  0
  3  1  1  0
  4  3  1  0
  5  3  1  0
  6  5  1  0
A    1
C1
A    2
O1
A    3
C2
A    4
O2
A    5
C3
A    6
O3
M  END
>  <Id>  (45) 
3QTV_GOL_H_1701

>  <ChainId>  (45) 
H

>  <AsymId>  (45) 
G

>  <SeqNum>  (45) 
1701

>  <Name>  (45) 
GLYCEROL

>  <SystematicName>  (45) 
propane-1,2,3-triol

>  <Synonyms>  (45) 
GLYCERIN; PROPANE-1,2,3-TRIOL

>  <Type>  (45) 
NON-POLYMER

>  <Formula>  (45) 
C3 H8 O3

>  <ObservedFormula>  (45) 
C3 O3

>  <MolecularWeight>  (45) 
92.094

>  <ModifiedDate>  (45) 
2011-06-04

>  <Parent>  (45) 


>  <OneLetterCode>  (45) 


>  <SubcomponentList>  (45) 


>  <AmbiguousFlag>  (45) 
N

>  <InsertionCode>  (45) 


>  <InstanceId>  (45) 
3QTV_GOL_H_1701

>  <ChemCompId>  (45) 
GOL

>  <PdbId>  (45) 
3QTV

>  <ResidueNumber>  (45) 
1701

>  <InChI>  (45) 
InChI=1S/C3H8O3/c4-1-3(6)2-5/h3-6H,1-2H2

>  <InChIKey>  (45) 
PEDCQBHIVMGVHV-UHFFFAOYSA-N

>  <SMILES>  (45) 
C(C(CO)O)O

>  <MissingHeavyAtoms>  (45) 
0

>  <Model>  (45) 
1

>  <AltIds>  (45) 


>  <pKI>  (45) 
8.7

>  <ChemblID>  (45) 
CHEMBL391640

>  <standardized_canonical_smiles>  (45) 
C/C(=C\S(=O)(=O)N[C@H]1CCN([C@@H](C)C(=O)N2CCOCC2)C1=O)c1ccc(Cl)s1

$$$$
2ZG0_50U_H_701
     RDKit          3D

 28 30  0  0  0  0  0  0  0  0999 V2000
   19.5820  -14.0820   24.7640 C   0  0  0  0  0  0  0  0  0  0  0  0
   19.7590  -13.3400   26.1100 C   0  0  0  0  0  0  0  0  0  0  0  0
   21.0950  -12.5520   26.2090 C   0  0  0  0  0  0  0  0  0  0  0  0
   22.3280  -13.4720   25.9350 C   0  0  0  0  0  0  0  0  0  0  0  0
   22.1900  -14.1090   24.5340 C   0  0  0  0  0  0  0  0  0  0  0  0
   20.8610  -14.9260   24.4490 C   0  0  0  0  0  0  0  0  0  0  0  0
   18.2950  -14.9890   24.7950 C   0  0  0  0  0  0  0  0  0  0  0  0
   17.7760  -15.2490   23.3540 C   0  0  0  0  0  0  0  0  0  0  0  0
   17.6720  -13.9260   22.6120 C   0  0  0  0  0  0  0  0  0  0  0  0
   16.7470  -13.2080   22.9960 O   0  0  0  0  0  0  0  0  0  0  0  0
   18.4320  -13.5280   21.6560 N   0  0  0  0  0  0  0  0  0  0  0  0
   18.2180  -12.1940   21.1240 C   0  0  0  0  0  0  0  0  0  0  0  0
   16.8770  -12.1050   20.4290 C   0  0  0  0  0  0  0  0  0  0  0  0
   16.5130  -13.1160   19.8480 O   0  0  0  0  0  0  0  0  0  0  0  0
   19.3680  -12.2180   20.0800 C   0  0  0  0  0  0  0  0  0  0  0  0
   20.3980  -13.2090   20.6800 C   0  0  0  0  0  0  0  0  0  0  0  0
   19.5500  -14.3690   21.2650 C   0  0  0  0  0  0  0  0  0  0  0  0
   16.2500  -10.9950   20.4890 N   0  0  0  0  0  0  0  0  0  0  0  0
   14.9440  -10.9590   19.8450 C   0  0  0  0  0  0  0  0  0  0  0  0
   13.8630  -10.8900   20.9450 C   0  0  0  0  0  0  0  0  0  0  0  0
   13.3760  -12.0620   21.5210 C   0  0  0  0  0  0  0  0  0  0  0  0
   12.4010  -12.0520   22.5160 C   0  0  0  0  0  0  0  0  0  0  0  0
   11.8640  -10.8400   22.9850 C   0  0  0  0  0  0  0  0  0  0  0  0
   10.8070  -10.8110   24.0630 C   0  0  0  0  0  0  0  0  0  0  0  0
   10.5020   -9.6980   24.6080 N   0  0  0  0  0  0  0  0  0  0  0  0
   10.2210  -11.8890   24.4300 N   0  0  0  0  0  0  0  0  0  0  0  0
   12.3490   -9.6620   22.4110 C   0  0  0  0  0  0  0  0  0  0  0  0
   13.3320   -9.6890   21.4080 C   0  0  0  0  0  0  0  0  0  0  0  0
  2  1  1  0
  6  1  1  0
  7  1  1  0
  3  2  1  0
  4  3  1  0
  5  4  1  0
  6  5  1  0
  8  7  1  0
  9  8  1  0
 10  9  2  0
 11  9  1  0
 12 11  1  0
 17 11  1  0
 13 12  1  0
 15 12  1  0
 14 13  2  0
 18 13  1  0
 16 15  1  0
 17 16  1  0
 19 18  1  0
 20 19  1  0
 21 20  2  0
 28 20  1  0
 22 21  1  0
 23 22  2  0
 24 23  1  0
 27 23  1  0
 25 24  2  0
 26 24  1  0
 28 27  2  0
A    1
C44
A    2
C45
A    3
C46
A    4
C47
A    5
C48
A    6
C49
A    7
C43
A    8
C5
A    9
C14
A   10
O32
A   11
N1
A   12
C1
A   13
C7
A   14
O22
A   15
C2
A   16
C3
A   17
C4
A   18
N23
A   19
C24
A   20
C25
A   21
C26
A   22
C27
A   23
C28
A   24
C21
A   25
N46
A   26
N47
A   27
C29
A   28
C30
M  END
>  <Id>  (46) 
2ZG0_50U_H_701

>  <ChainId>  (46) 
H

>  <AsymId>  (46) 
F

>  <SeqNum>  (46) 
701

>  <Name>  (46) 
(S)-N-(4-carbamimidoylbenzyl)-1-(3-cyclohexylpropanoyl)pyrrolidine-2-carboxamide

>  <SystematicName>  (46) 
(2S)-N-[(4-carbamimidoylphenyl)methyl]-1-(3-cyclohexylpropanoyl)pyrrolidine-2-carboxamide

>  <Synonyms>  (46) 


>  <Type>  (46) 
peptide-like

>  <Formula>  (46) 
C22 H32 N4 O2

>  <ObservedFormula>  (46) 
C22 N4 O2

>  <MolecularWeight>  (46) 
384.515

>  <ModifiedDate>  (46) 
2012-01-05

>  <Parent>  (46) 


>  <OneLetterCode>  (46) 


>  <SubcomponentList>  (46) 
CXP PRO 00S

>  <AmbiguousFlag>  (46) 
N

>  <InsertionCode>  (46) 


>  <InstanceId>  (46) 
2ZG0_50U_H_701

>  <ChemCompId>  (46) 
50U

>  <PdbId>  (46) 
2ZG0

>  <ResidueNumber>  (46) 
701

>  <InChI>  (46) 
InChI=1S/C22H32N4O2/c23-21(24)18-11-8-17(9-12-18)15-25-22(28)19-7-4-14-26(19)20(27)13-10-16-5-2-1-3-6-16/h8-9,11-12,16,19H,1-7,10,13-15H2,(H3,23,24)(H,25,28)/t19-/m0/s1

>  <InChIKey>  (46) 
DOTBZTLJSXFKCP-IBGZPJMESA-N

>  <SMILES>  (46) 
[H]/N=C(/c1ccc(cc1)CNC(=O)[C@@H]2CCCN2C(=O)CCC3CCCCC3)\N

>  <MissingHeavyAtoms>  (46) 
0

>  <Model>  (46) 
1

>  <AltIds>  (46) 


>  <pKI>  (46) 
8.7

>  <ChemblID>  (46) 
CHEMBL391640

>  <standardized_canonical_smiles>  (46) 
C/C(=C\S(=O)(=O)N[C@H]1CCN([C@@H](C)C(=O)N2CCOCC2)C1=O)c1ccc(Cl)s1

$$$$
6P9U_NAG_H_701
     RDKit          3D

 14 14  0  0  0  0  0  0  0  0999 V2000
  164.5510  130.1720   -7.6520 C   0  0  0  0  0  0  0  0  0  0  0  0
  165.0810  131.4310   -8.3570 C   0  0  0  0  0  0  0  0  0  0  0  0
  163.9870  131.9960   -9.2630 C   0  0  0  0  0  0  0  0  0  0  0  0
  163.6220  130.9370  -10.3170 C   0  0  0  0  0  0  0  0  0  0  0  0
  163.7130  129.4500   -9.8410 C   0  0  0  0  0  0  0  0  0  0  0  0
  164.1920  128.5260  -10.9810 C   0  0  0  0  0  0  0  0  0  0  0  0
  166.8600  132.3780   -6.9930 C   0  0  0  0  0  0  0  0  0  0  0  0
  167.2620  133.5440   -6.1470 C   0  0  0  0  0  0  0  0  0  0  0  0
  165.6290  132.4630   -7.4920 N   0  0  0  0  0  0  0  0  0  0  0  0
  164.4690  133.2110   -9.8750 O   0  0  0  0  0  0  0  0  0  0  0  0
  162.3020  131.2300  -10.7890 O   0  0  0  0  0  0  0  0  0  0  0  0
  164.5670  129.1710   -8.6870 O   0  0  0  0  0  0  0  0  0  0  0  0
  165.4950  128.8880  -11.4800 O   0  0  0  0  0  0  0  0  0  0  0  0
  167.6030  131.4230   -7.1890 O   0  0  0  0  0  0  0  0  0  0  0  0
  2  1  1  0
 12  1  1  0
  3  2  1  0
  9  2  1  0
  4  3  1  0
 10  3  1  0
  5  4  1  0
 11  4  1  0
  6  5  1  0
 12  5  1  0
 13  6  1  0
  8  7  1  0
  9  7  1  0
 14  7  2  0
A    1
C1
A    2
C2
A    3
C3
A    4
C4
A    5
C5
A    6
C6
A    7
C7
A    8
C8
A    9
N2
A   10
O3
A   11
O4
A   12
O5
A   13
O6
A   14
O7
M  END
>  <Id>  (47) 
6P9U_NAG_H_701

>  <ChainId>  (47) 
H

>  <AsymId>  (47) 
S

>  <SeqNum>  (47) 
701

>  <Name>  (47) 
N-ACETYL-D-GLUCOSAMINE

>  <SystematicName>  (47) 
N-[(2R,3R,4R,5S,6R)-6-(hydroxymethyl)-2,4,5-tris(oxidanyl)oxan-3-yl]ethanamide

>  <Synonyms>  (47) 


>  <Type>  (47) 
D-SACCHARIDE

>  <Formula>  (47) 
C8 H15 N O6

>  <ObservedFormula>  (47) 
C8 N O5

>  <MolecularWeight>  (47) 
221.208

>  <ModifiedDate>  (47) 
2019-08-12

>  <Parent>  (47) 


>  <OneLetterCode>  (47) 


>  <SubcomponentList>  (47) 


>  <AmbiguousFlag>  (47) 
N

>  <InsertionCode>  (47) 


>  <InstanceId>  (47) 
6P9U_NAG_H_701

>  <ChemCompId>  (47) 
NAG

>  <PdbId>  (47) 
6P9U

>  <ResidueNumber>  (47) 
701

>  <InChI>  (47) 
InChI=1S/C8H15NO6/c1-3(11)9-5-7(13)6(12)4(2-10)15-8(5)14/h4-8,10,12-14H,2H2,1H3,(H,9,11)/t4-,5-,6-,7-,8-/m1/s1

>  <InChIKey>  (47) 
OVRNDRQMDRJTHS-FMDGEEDCSA-N

>  <SMILES>  (47) 
CC(=O)N[C@@H]1[C@H]([C@@H]([C@H](O[C@H]1O)CO)O)O

>  <MissingHeavyAtoms>  (47) 
1

>  <Model>  (47) 
1

>  <AltIds>  (47) 


>  <pKI>  (47) 
8.7

>  <ChemblID>  (47) 
CHEMBL391640

>  <standardized_canonical_smiles>  (47) 
C/C(=C\S(=O)(=O)N[C@H]1CCN([C@@H](C)C(=O)N2CCOCC2)C1=O)c1ccc(Cl)s1

$$$$
6EO7_0G6_H_701
     RDKit          3D

 30 31  0  0  0  0  0  0  0  0999 V2000
   40.3600  -34.0430    6.8150 N   0  0  0  0  0  0  0  0  0  0  0  0
   39.3610  -34.8630    7.4700 C   0  0  0  0  0  0  0  0  0  0  0  0
   39.5620  -34.6220    8.9460 C   0  0  0  0  0  0  0  0  0  0  0  0
   39.7890  -33.4900    9.3680 O   0  0  0  0  0  0  0  0  0  0  0  0
   38.0140  -34.3500    7.0340 C   0  0  0  0  0  0  0  0  0  0  0  0
   36.8870  -35.1080    7.6610 C   0  0  0  0  0  0  0  0  0  0  0  0
   36.0440  -34.4600    8.5480 C   0  0  0  0  0  0  0  0  0  0  0  0
   36.6510  -36.4530    7.3630 C   0  0  0  0  0  0  0  0  0  0  0  0
   35.0100  -35.1430    9.1670 C   0  0  0  0  0  0  0  0  0  0  0  0
   35.6020  -37.1560    8.0020 C   0  0  0  0  0  0  0  0  0  0  0  0
   34.7820  -36.4970    8.9020 C   0  0  0  0  0  0  0  0  0  0  0  0
   39.5730  -35.6450    9.7540 N   0  0  0  0  0  0  0  0  0  0  0  0
   39.8630  -35.4210   11.1720 C   0  0  0  0  0  0  0  0  0  0  0  0
   41.2670  -34.9900   11.4580 C   0  0  0  0  0  0  0  0  0  0  0  0
   42.1900  -35.4060   10.7330 O   0  0  0  0  0  0  0  0  0  0  0  0
   39.6640  -36.7600   11.8260 C   0  0  0  0  0  0  0  0  0  0  0  0
   38.9940  -37.6420   10.7520 C   0  0  0  0  0  0  0  0  0  0  0  0
   39.3750  -37.0470    9.4200 C   0  0  0  0  0  0  0  0  0  0  0  0
   41.3730  -34.1020   12.4890 N   0  0  0  0  0  0  0  0  0  0  0  0
   42.6710  -33.6210   12.8380 C   0  0  0  0  0  0  0  0  0  0  0  0
   43.0910  -34.2080   14.1670 C   0  0  0  0  0  0  0  0  0  0  0  0
   44.4680  -34.1200   14.4570 O   0  0  0  0  0  0  0  0  0  0  0  0
   42.6100  -32.1210   12.9040 C   0  0  0  0  0  0  0  0  0  0  0  0
   42.5320  -31.5450   11.5360 C   0  0  0  0  0  0  0  0  0  0  0  0
   42.3640  -30.0640   11.6060 C   0  0  0  0  0  0  0  0  0  0  0  0
   42.5190  -29.5040   10.2680 N   0  0  0  0  0  0  0  0  0  0  0  0
   42.4800  -28.1990    9.9750 C   0  0  0  0  0  0  0  0  0  0  0  0
   42.2350  -27.2720   10.8900 N   0  0  0  0  0  0  0  0  0  0  0  0
   42.6900  -27.7660    8.7170 N   0  0  0  0  0  0  0  0  0  0  0  0
   42.7820  -35.6870   14.3960 C   0  0  0  0  0  0  0  0  0  0  0  0
  2  1  1  0
  3  2  1  0
  5  2  1  0
  4  3  2  0
 12  3  1  0
  6  5  1  0
  7  6  2  0
  8  6  1  0
  9  7  1  0
 10  8  2  0
 11  9  2  0
 11 10  1  0
 13 12  1  0
 18 12  1  0
 14 13  1  0
 16 13  1  0
 15 14  2  0
 19 14  1  0
 17 16  1  0
 18 17  1  0
 20 19  1  0
 21 20  1  0
 23 20  1  0
 22 21  1  0
 30 21  1  0
 24 23  1  0
 25 24  1  0
 26 25  1  0
 27 26  1  0
 28 27  1  0
 29 27  2  0
M  CHG  1  29   1
A    1
N
A    2
CA
A    3
C
A    4
O
A    5
CB
A    6
CG
A    7
CD1
A    8
CD2
A    9
CE1
A   10
CE2
A   11
CZ
A   12
N1
A   13
CA1
A   14
C1
A   15
O1
A   16
CB1
A   17
CG1
A   18
CD
A   19
N2
A   20
CA2
A   21
C2
A   22
O2
A   23
CB2
A   24
CG2
A   25
CD3
A   26
NE
A   27
CZ1
A   28
NH1
A   29
NH2
A   30
C3
M  END
>  <Id>  (48) 
6EO7_0G6_H_701

>  <ChainId>  (48) 
H

>  <AsymId>  (48) 
E

>  <SeqNum>  (48) 
701

>  <Name>  (48) 
D-phenylalanyl-N-[(2S,3S)-6-{[amino(iminio)methyl]amino}-1-chloro-2-hydroxyhexan-3-yl]-L-prolinamide

>  <SystematicName>  (48) 
[azanyl-[[(4S,5S)-4-[[(2S)-1-[(2R)-2-azanyl-3-phenyl-propanoyl]pyrrolidin-2-yl]carbonylamino]-6-chloranyl-5-oxidanyl-hexyl]amino]methylidene]azanium

>  <Synonyms>  (48) 
PPACK

>  <Type>  (48) 
peptide-like

>  <Formula>  (48) 
C21 H34 Cl N6 O3

>  <ObservedFormula>  (48) 
C21 N6 O3

>  <MolecularWeight>  (48) 
453.986

>  <ModifiedDate>  (48) 
2011-11-17

>  <Parent>  (48) 


>  <OneLetterCode>  (48) 


>  <SubcomponentList>  (48) 
DPN PRO AR7 0QE

>  <AmbiguousFlag>  (48) 
N

>  <InsertionCode>  (48) 


>  <InstanceId>  (48) 
6EO7_0G6_H_701

>  <ChemCompId>  (48) 
0G6

>  <PdbId>  (48) 
6EO7

>  <ResidueNumber>  (48) 
701

>  <InChI>  (48) 
InChI=1S/C21H33ClN6O3/c22-13-18(29)16(8-4-10-26-21(24)25)27-19(30)17-9-5-11-28(17)20(31)15(23)12-14-6-2-1-3-7-14/h1-3,6-7,15-18,29H,4-5,8-13,23H2,(H,27,30)(H4,24,25,26)/p+1/t15-,16+,17+,18-/m1/s1

>  <InChIKey>  (48) 
DVFLYEYCMMLBTQ-VSZNYVQBSA-O

>  <SMILES>  (48) 
c1ccc(cc1)C[C@H](C(=O)N2CCC[C@H]2C(=O)N[C@@H](CCCNC(=[NH2+])N)[C@@H](CCl)O)N

>  <MissingHeavyAtoms>  (48) 
1

>  <Model>  (48) 
1

>  <AltIds>  (48) 


>  <pKI>  (48) 
8.7

>  <ChemblID>  (48) 
CHEMBL391640

>  <standardized_canonical_smiles>  (48) 
C/C(=C\S(=O)(=O)N[C@H]1CCN([C@@H](C)C(=O)N2CCOCC2)C1=O)c1ccc(Cl)s1

$$$$
2ZFR_GOL_H_701
     RDKit          3D

  6  5  0  0  0  0  0  0  0  0999 V2000
   11.4680   17.7590   31.0170 C   0  0  0  0  0  0  0  0  0  0  0  0
   10.2210   18.2220   31.5680 O   0  0  0  0  0  0  0  0  0  0  0  0
   11.8080   18.6400   29.7830 C   0  0  0  0  0  0  0  0  0  0  0  0
   13.1930   19.0330   29.8830 O   0  0  0  0  0  0  0  0  0  0  0  0
   10.8980   19.8930   29.7340 C   0  0  0  0  0  0  0  0  0  0  0  0
   10.7260   20.3580   28.3780 O   0  0  0  0  0  0  0  0  0  0  0  0
  2  1  1  0
  3  1  1  0
  4  3  1  0
  5  3  1  0
  6  5  1  0
A    1
C1
A    2
O1
A    3
C2
A    4
O2
A    5
C3
A    6
O3
M  END
>  <Id>  (49) 
2ZFR_GOL_H_701

>  <ChainId>  (49) 
H

>  <AsymId>  (49) 
G

>  <SeqNum>  (49) 
701

>  <Name>  (49) 
GLYCEROL

>  <SystematicName>  (49) 
propane-1,2,3-triol

>  <Synonyms>  (49) 
GLYCERIN; PROPANE-1,2,3-TRIOL

>  <Type>  (49) 
NON-POLYMER

>  <Formula>  (49) 
C3 H8 O3

>  <ObservedFormula>  (49) 
C3 O3

>  <MolecularWeight>  (49) 
92.094

>  <ModifiedDate>  (49) 
2011-06-04

>  <Parent>  (49) 


>  <OneLetterCode>  (49) 


>  <SubcomponentList>  (49) 


>  <AmbiguousFlag>  (49) 
N

>  <InsertionCode>  (49) 


>  <InstanceId>  (49) 
2ZFR_GOL_H_701

>  <ChemCompId>  (49) 
GOL

>  <PdbId>  (49) 
2ZFR

>  <ResidueNumber>  (49) 
701

>  <InChI>  (49) 
InChI=1S/C3H8O3/c4-1-3(6)2-5/h3-6H,1-2H2

>  <InChIKey>  (49) 
PEDCQBHIVMGVHV-UHFFFAOYSA-N

>  <SMILES>  (49) 
C(C(CO)O)O

>  <MissingHeavyAtoms>  (49) 
0

>  <Model>  (49) 
1

>  <AltIds>  (49) 


>  <pKI>  (49) 
8.7

>  <ChemblID>  (49) 
CHEMBL391640

>  <standardized_canonical_smiles>  (49) 
C/C(=C\S(=O)(=O)N[C@H]1CCN([C@@H](C)C(=O)N2CCOCC2)C1=O)c1ccc(Cl)s1

$$$$
6EO6_0G6_H_701
     RDKit          3D

 30 32  0  0  0  0  0  0  0  0999 V2000
  -44.7970   17.5310  -13.9670 N   0  0  0  0  0  0  0  0  0  0  0  0
  -44.6400   16.2320  -13.2330 C   0  0  0  0  0  0  0  0  0  0  0  0
  -44.6970   16.5250  -11.7230 C   0  0  0  0  0  0  0  0  0  0  0  0
  -45.5500   17.3440  -11.2990 O   0  0  0  0  0  0  0  0  0  0  0  0
  -45.7460   15.2480  -13.5880 C   0  0  0  0  0  0  0  0  0  0  0  0
  -45.6680   13.9190  -12.9320 C   0  0  0  0  0  0  0  0  0  0  0  0
  -46.6380   13.4990  -12.0650 C   0  0  0  0  0  0  0  0  0  0  0  0
  -44.6110   13.0430  -13.2300 C   0  0  0  0  0  0  0  0  0  0  0  0
  -46.5670   12.2780  -11.3850 C   0  0  0  0  0  0  0  0  0  0  0  0
  -44.5190   11.8100  -12.5880 C   0  0  0  0  0  0  0  0  0  0  0  0
  -45.4710   11.4230  -11.6990 C   0  0  0  0  0  0  0  0  0  0  0  0
  -43.7940   16.0650  -10.9040 N   0  0  0  0  0  0  0  0  0  0  0  0
  -43.7840   16.3850   -9.4300 C   0  0  0  0  0  0  0  0  0  0  0  0
  -43.5540   17.8670   -9.1850 C   0  0  0  0  0  0  0  0  0  0  0  0
  -42.7250   18.4960   -9.8690 O   0  0  0  0  0  0  0  0  0  0  0  0
  -42.6470   15.6070   -8.8360 C   0  0  0  0  0  0  0  0  0  0  0  0
  -42.3230   14.5370   -9.9170 C   0  0  0  0  0  0  0  0  0  0  0  0
  -42.6370   15.2100  -11.2430 C   0  0  0  0  0  0  0  0  0  0  0  0
  -44.2660   18.4230   -8.1670 N   0  0  0  0  0  0  0  0  0  0  0  0
  -44.0330   19.7970   -7.8230 C   0  0  0  0  0  0  0  0  0  0  0  0
  -43.3990   19.8650   -6.4440 C   0  0  0  0  0  0  0  0  0  0  0  0
  -42.7420   21.1250   -6.2720 O   0  0  0  0  0  0  0  0  0  0  0  0
  -45.3530   20.6260   -7.8070 C   0  0  0  0  0  0  0  0  0  0  0  0
  -45.8500   20.8680   -9.2110 C   0  0  0  0  0  0  0  0  0  0  0  0
  -47.2470   21.4120   -9.2220 C   0  0  0  0  0  0  0  0  0  0  0  0
  -47.6930   21.7030  -10.5780 N   0  0  0  0  0  0  0  0  0  0  0  0
  -48.7990   22.3290  -10.8340 C   0  0  0  0  0  0  0  0  0  0  0  0
  -49.7120   22.6160   -9.8920 N   0  0  0  0  0  0  0  0  0  0  0  0
  -49.0390   22.7870  -12.0540 N   0  0  0  0  0  0  0  0  0  0  0  0
  -42.2360   18.8770   -6.1560 C   0  0  0  0  0  0  0  0  0  0  0  0
  2  1  1  0
  3  2  1  0
  5  2  1  0
  4  3  2  0
 12  3  1  0
  6  5  1  0
  7  6  1  0
  8  6  2  0
  9  7  2  0
 10  8  1  0
 11  9  1  0
 11 10  2  0
 13 12  1  0
 18 12  1  0
 14 13  1  0
 16 13  1  0
 15 14  2  0
 19 14  1  0
 17 16  1  0
 18 17  1  0
 20 19  1  0
 21 20  1  0
 23 20  1  0
 22 21  1  0
 30 21  1  0
 24 23  1  0
 25 24  1  0
 26 25  1  0
 27 26  1  0
 28 27  1  0
 29 27  2  0
 30  9  1  0
M  CHG  1  29   1
A    1
N
A    2
CA
A    3
C
A    4
O
A    5
CB
A    6
CG
A    7
CD1
A    8
CD2
A    9
CE1
A   10
CE2
A   11
CZ
A   12
N1
A   13
CA1
A   14
C1
A   15
O1
A   16
CB1
A   17
CG1
A   18
CD
A   19
N2
A   20
CA2
A   21
C2
A   22
O2
A   23
CB2
A   24
CG2
A   25
CD3
A   26
NE
A   27
CZ1
A   28
NH1
A   29
NH2
A   30
C3
M  END
>  <Id>  (50) 
6EO6_0G6_H_701

>  <ChainId>  (50) 
H

>  <AsymId>  (50) 
E

>  <SeqNum>  (50) 
701

>  <Name>  (50) 
D-phenylalanyl-N-[(2S,3S)-6-{[amino(iminio)methyl]amino}-1-chloro-2-hydroxyhexan-3-yl]-L-prolinamide

>  <SystematicName>  (50) 
[azanyl-[[(4S,5S)-4-[[(2S)-1-[(2R)-2-azanyl-3-phenyl-propanoyl]pyrrolidin-2-yl]carbonylamino]-6-chloranyl-5-oxidanyl-hexyl]amino]methylidene]azanium

>  <Synonyms>  (50) 
PPACK

>  <Type>  (50) 
peptide-like

>  <Formula>  (50) 
C21 H34 Cl N6 O3

>  <ObservedFormula>  (50) 
C21 N6 O3

>  <MolecularWeight>  (50) 
453.986

>  <ModifiedDate>  (50) 
2011-11-17

>  <Parent>  (50) 


>  <OneLetterCode>  (50) 


>  <SubcomponentList>  (50) 
DPN PRO AR7 0QE

>  <AmbiguousFlag>  (50) 
N

>  <InsertionCode>  (50) 


>  <InstanceId>  (50) 
6EO6_0G6_H_701

>  <ChemCompId>  (50) 
0G6

>  <PdbId>  (50) 
6EO6

>  <ResidueNumber>  (50) 
701

>  <InChI>  (50) 
InChI=1S/C21H33ClN6O3/c22-13-18(29)16(8-4-10-26-21(24)25)27-19(30)17-9-5-11-28(17)20(31)15(23)12-14-6-2-1-3-7-14/h1-3,6-7,15-18,29H,4-5,8-13,23H2,(H,27,30)(H4,24,25,26)/p+1/t15-,16+,17+,18-/m1/s1

>  <InChIKey>  (50) 
DVFLYEYCMMLBTQ-VSZNYVQBSA-O

>  <SMILES>  (50) 
c1ccc(cc1)C[C@H](C(=O)N2CCC[C@H]2C(=O)N[C@@H](CCCNC(=[NH2+])N)[C@@H](CCl)O)N

>  <MissingHeavyAtoms>  (50) 
1

>  <Model>  (50) 
1

>  <AltIds>  (50) 


>  <pKI>  (50) 
8.7

>  <ChemblID>  (50) 
CHEMBL391640

>  <standardized_canonical_smiles>  (50) 
C/C(=C\S(=O)(=O)N[C@H]1CCN([C@@H](C)C(=O)N2CCOCC2)C1=O)c1ccc(Cl)s1

$$$$
2ZFQ_BEN_H_701
     RDKit          3D

  9  9  0  0  0  0  0  0  0  0999 V2000
   11.3530  -19.5410   34.5740 C   0  0  0  0  0  0  0  0  0  0  0  0
   11.0490  -18.3100   35.1290 C   0  0  0  0  0  0  0  0  0  0  0  0
   10.6080  -18.2630   36.4470 C   0  0  0  0  0  0  0  0  0  0  0  0
   10.4650  -19.4140   37.2120 C   0  0  0  0  0  0  0  0  0  0  0  0
   10.7710  -20.6310   36.6460 C   0  0  0  0  0  0  0  0  0  0  0  0
   11.2120  -20.6930   35.3350 C   0  0  0  0  0  0  0  0  0  0  0  0
   11.8260  -19.6370   33.1770 C   0  0  0  0  0  0  0  0  0  0  0  0
   12.6220  -18.7000   32.6440 N   0  0  0  0  0  0  0  0  0  0  0  0
   11.4930  -20.6460   32.3830 N   0  0  0  0  0  0  0  0  0  0  0  0
  2  1  2  0
  6  1  1  0
  7  1  1  0
  3  2  1  0
  4  3  2  0
  5  4  1  0
  6  5  2  0
  8  7  2  0
  9  7  1  0
A    1
C1
A    2
C2
A    3
C3
A    4
C4
A    5
C5
A    6
C6
A    7
C
A    8
N1
A    9
N2
M  END
>  <Id>  (51) 
2ZFQ_BEN_H_701

>  <ChainId>  (51) 
H

>  <AsymId>  (51) 
G

>  <SeqNum>  (51) 
701

>  <Name>  (51) 
BENZAMIDINE

>  <SystematicName>  (51) 
benzenecarboximidamide

>  <Synonyms>  (51) 


>  <Type>  (51) 
NON-POLYMER

>  <Formula>  (51) 
C7 H8 N2

>  <ObservedFormula>  (51) 
C7 N2

>  <MolecularWeight>  (51) 
120.152

>  <ModifiedDate>  (51) 
2011-06-04

>  <Parent>  (51) 


>  <OneLetterCode>  (51) 


>  <SubcomponentList>  (51) 


>  <AmbiguousFlag>  (51) 
N

>  <InsertionCode>  (51) 


>  <InstanceId>  (51) 
2ZFQ_BEN_H_701

>  <ChemCompId>  (51) 
BEN

>  <PdbId>  (51) 
2ZFQ

>  <ResidueNumber>  (51) 
701

>  <InChI>  (51) 
InChI=1S/C7H8N2/c8-7(9)6-4-2-1-3-5-6/h1-5H,(H3,8,9)

>  <InChIKey>  (51) 
PXXJHWLDUBFPOL-UHFFFAOYSA-N

>  <SMILES>  (51) 
[H]/N=C(\c1ccccc1)/N

>  <MissingHeavyAtoms>  (51) 
0

>  <Model>  (51) 
1

>  <AltIds>  (51) 


>  <pKI>  (51) 
8.7

>  <ChemblID>  (51) 
CHEMBL391640

>  <standardized_canonical_smiles>  (51) 
C/C(=C\S(=O)(=O)N[C@H]1CCN([C@@H](C)C(=O)N2CCOCC2)C1=O)c1ccc(Cl)s1

$$$$
1SFQ_NAG_E_701
     RDKit          3D

 14 14  0  0  0  0  0  0  0  0999 V2000
   23.7690   59.1950   95.4350 C   0  0  0  0  0  0  0  0  0  0  0  0
   27.6520   57.7210   97.1610 O   0  0  0  0  0  0  0  0  0  0  0  0
   21.7620   58.1750   91.7140 O   0  0  0  0  0  0  0  0  0  0  0  0
   26.8950   57.7420   96.1890 C   0  0  0  0  0  0  0  0  0  0  0  0
   22.0030   57.9830   94.1240 C   0  0  0  0  0  0  0  0  0  0  0  0
   22.9300   56.8960   93.9050 O   0  0  0  0  0  0  0  0  0  0  0  0
   24.5390   60.3870   95.5230 O   0  0  0  0  0  0  0  0  0  0  0  0
   23.8520   56.7210   94.9930 C   0  0  0  0  0  0  0  0  0  0  0  0
   25.5730   57.8180   96.3370 N   0  0  0  0  0  0  0  0  0  0  0  0
   27.4870   57.6630   94.7830 C   0  0  0  0  0  0  0  0  0  0  0  0
   24.6910   57.9930   95.1980 C   0  0  0  0  0  0  0  0  0  0  0  0
   22.7600   59.3100   94.2900 C   0  0  0  0  0  0  0  0  0  0  0  0
   21.0580   58.0060   92.9370 C   0  0  0  0  0  0  0  0  0  0  0  0
   21.8400   60.3600   94.5610 O   0  0  0  0  0  0  0  0  0  0  0  0
 13  3  1  0
  8  6  1  0
  4  9  1  0
  1  7  1  0
  8 11  1  0
  4 10  1  0
  5 13  1  0
 11  9  1  0
  4  2  2  0
 11  1  1  0
  1 12  1  0
 12  5  1  0
 12 14  1  0
  5  6  1  0
A    1
C3
A    2
O7
A    3
O6
A    4
C7
A    5
C5
A    6
O5
A    7
O3
A    8
C1
A    9
N2
A   10
C8
A   11
C2
A   12
C4
A   13
C6
A   14
O4
M  END
>  <InstanceId>  (52) 
1SFQ_NAG_E_701

>  <ChemCompId>  (52) 
NAG

>  <PdbId>  (52) 
1SFQ

>  <ChainId>  (52) 
E

>  <ResidueNumber>  (52) 
701

>  <InsertionCode>  (52) 


>  <Model>  (52) 
1

>  <AltIds>  (52) 


>  <MissingHeavyAtoms>  (52) 
1

>  <ObservedFormula>  (52) 
C8 N O5

>  <AsymId>  (52) 
I

>  <SeqNum>  (52) 
701

>  <Name>  (52) 
N-ACETYL-D-GLUCOSAMINE

>  <SystematicName>  (52) 
N-[(2R,3R,4R,5S,6R)-6-(hydroxymethyl)-2,4,5-tris(oxidanyl)oxan-3-yl]ethanamide

>  <Synonyms>  (52) 


>  <Type>  (52) 
D-SACCHARIDE

>  <Formula>  (52) 
C8 H15 N O6

>  <MolecularWeight>  (52) 
221.208

>  <ModifiedDate>  (52) 
2012-11-26

>  <Parent>  (52) 


>  <OneLetterCode>  (52) 


>  <SubcomponentList>  (52) 


>  <AmbiguousFlag>  (52) 
N

>  <InChI>  (52) 
null

>  <InChIKey>  (52) 
null

>  <SMILES>  (52) 
CC(=O)N[C@@H]1[C@H]([C@@H]([C@H](O[C@H]1O)CO)O)O

>  <pKI>  (52) 
8.7

>  <ChemblID>  (52) 
CHEMBL391640

>  <standardized_canonical_smiles>  (52) 
C/C(=C\S(=O)(=O)N[C@H]1CCN([C@@H](C)C(=O)N2CCOCC2)C1=O)c1ccc(Cl)s1

$$$$
3U69_MRD_H_701
     RDKit          3D

  8  7  0  0  0  0  0  0  0  0999 V2000
   21.5550    1.2970    8.6400 C   0  0  0  0  0  0  0  0  0  0  0  0
   20.2180    0.5660    8.6630 C   0  0  0  0  0  0  0  0  0  0  0  0
   19.4720    1.0060    9.8250 O   0  0  0  0  0  0  0  0  0  0  0  0
   19.3620    0.9740    7.4730 C   0  0  0  0  0  0  0  0  0  0  0  0
   20.4230   -0.9450    8.7890 C   0  0  0  0  0  0  0  0  0  0  0  0
   20.8750   -1.6610    7.5210 C   0  0  0  0  0  0  0  0  0  0  0  0
   20.6880   -3.0510    7.6900 O   0  0  0  0  0  0  0  0  0  0  0  0
   22.3370   -1.4180    7.1890 C   0  0  0  0  0  0  0  0  0  0  0  0
  2  1  1  0
  3  2  1  0
  4  2  1  0
  5  2  1  0
  6  5  1  0
  7  6  1  0
  8  6  1  0
A    1
C1
A    2
C2
A    3
O2
A    4
CM
A    5
C3
A    6
C4
A    7
O4
A    8
C5
M  END
>  <Id>  (53) 
3U69_MRD_H_701

>  <ChainId>  (53) 
H

>  <AsymId>  (53) 
I

>  <SeqNum>  (53) 
701

>  <Name>  (53) 
(4R)-2-METHYLPENTANE-2,4-DIOL

>  <SystematicName>  (53) 
(4R)-2-methylpentane-2,4-diol

>  <Synonyms>  (53) 


>  <Type>  (53) 
NON-POLYMER

>  <Formula>  (53) 
C6 H14 O2

>  <ObservedFormula>  (53) 
C6 O2

>  <MolecularWeight>  (53) 
118.174

>  <ModifiedDate>  (53) 
2011-06-04

>  <Parent>  (53) 


>  <OneLetterCode>  (53) 


>  <SubcomponentList>  (53) 


>  <AmbiguousFlag>  (53) 
N

>  <InsertionCode>  (53) 


>  <InstanceId>  (53) 
3U69_MRD_H_701

>  <ChemCompId>  (53) 
MRD

>  <PdbId>  (53) 
3U69

>  <ResidueNumber>  (53) 
701

>  <InChI>  (53) 
InChI=1S/C6H14O2/c1-5(7)4-6(2,3)8/h5,7-8H,4H2,1-3H3/t5-/m1/s1

>  <InChIKey>  (53) 
SVTBMSDMJJWYQN-RXMQYKEDSA-N

>  <SMILES>  (53) 
C[C@H](CC(C)(C)O)O

>  <MissingHeavyAtoms>  (53) 
0

>  <Model>  (53) 
1

>  <AltIds>  (53) 


>  <pKI>  (53) 
8.7

>  <ChemblID>  (53) 
CHEMBL391640

>  <standardized_canonical_smiles>  (53) 
C/C(=C\S(=O)(=O)N[C@H]1CCN([C@@H](C)C(=O)N2CCOCC2)C1=O)c1ccc(Cl)s1

$$$$
2JH0_701_D_1247
     RDKit          3D

 29 31  0  0  0  0  0  0  0  0999 V2000
   10.2540   25.4630   46.1290 Cl  0  0  0  0  0  0  0  0  0  0  0  0
   10.5490   23.8690   46.9260 C   0  0  0  0  0  0  0  0  0  0  0  0
   11.4820   22.9090   46.5700 C   0  0  0  0  0  0  0  0  0  0  0  0
   11.3850   21.8010   47.4370 C   0  0  0  0  0  0  0  0  0  0  0  0
   10.4160   21.9300   48.4430 C   0  0  0  0  0  0  0  0  0  0  0  0
    9.9940   20.9760   49.5190 C   0  0  0  0  0  0  0  0  0  0  0  0
    9.3690   21.5090   50.7740 C   0  0  0  0  0  0  0  0  0  0  0  0
    9.8380   18.4170   50.2030 S   0  0  0  0  0  0  0  0  0  0  0  0
   10.5700   18.4440   51.4290 O   0  0  0  0  0  0  0  0  0  0  0  0
   10.2150   17.2610   49.4240 O   0  0  0  0  0  0  0  0  0  0  0  0
    8.2880   18.3710   50.5490 N   0  0  0  0  0  0  0  0  0  0  0  0
    7.3440   17.9470   49.5250 C   0  0  0  0  0  0  0  0  0  0  0  0
    6.3840   16.8320   49.9840 C   0  0  0  0  0  0  0  0  0  0  0  0
    4.9980   17.1390   49.3800 C   0  0  0  0  0  0  0  0  0  0  0  0
    6.4270   19.0410   49.0630 C   0  0  0  0  0  0  0  0  0  0  0  0
    6.7690   20.2030   48.8590 O   0  0  0  0  0  0  0  0  0  0  0  0
    5.2180   18.5160   48.9150 N   0  0  0  0  0  0  0  0  0  0  0  0
    4.1070   19.2320   48.3000 C   0  0  0  0  0  0  0  0  0  0  0  0
    3.9620   18.8090   46.8350 C   0  0  0  0  0  0  0  0  0  0  0  0
    2.8260   19.0720   49.0630 C   0  0  0  0  0  0  0  0  0  0  0  0
    1.8930   18.4910   48.5290 O   0  0  0  0  0  0  0  0  0  0  0  0
    2.7710   19.5210   50.3220 N   0  0  0  0  0  0  0  0  0  0  0  0
    3.9190   20.0720   51.0600 C   0  0  0  0  0  0  0  0  0  0  0  0
    3.4790   21.4240   51.5780 C   0  0  0  0  0  0  0  0  0  0  0  0
    2.2790   21.2540   52.3390 O   0  0  0  0  0  0  0  0  0  0  0  0
    1.2070   20.8470   51.4970 C   0  0  0  0  0  0  0  0  0  0  0  0
    1.5270   19.4270   51.0740 C   0  0  0  0  0  0  0  0  0  0  0  0
    9.5570   23.4980   48.3110 S   0  0  0  0  0  0  0  0  0  0  0  0
   10.2070   19.6580   49.2690 C   0  0  0  0  0  0  0  0  0  0  0  0
  2  1  1  0
  3  2  2  0
 28  2  1  0
  4  3  1  0
  5  4  2  0
  6  5  1  0
 28  5  1  0
  7  6  1  0
 29  6  2  0
  9  8  2  0
 10  8  2  0
 11  8  1  0
 29  8  1  0
 12 11  1  0
 13 12  1  0
 15 12  1  0
 14 13  1  0
 17 14  1  0
 16 15  2  0
 17 15  1  0
 18 17  1  0
 19 18  1  0
 20 18  1  0
 21 20  2  0
 22 20  1  0
 23 22  1  0
 27 22  1  0
 24 23  1  0
 25 24  1  0
 26 25  1  0
 27 26  1  0
A    1
CL1
A    2
C1
A    3
C2
A    4
C3
A    5
C4
A    6
C9
A    7
C8
A    8
S1
A    9
O2
A   10
O1
A   11
N1
A   12
C12
A   13
C13
A   14
C14
A   15
C15
A   16
O3
A   17
N2
A   18
C16
A   19
C17
A   20
C18
A   21
O4
A   22
N3
A   23
C19
A   24
C20
A   25
O5
A   26
C22
A   27
C23
A   28
S6
A   29
C6
M  END
>  <Id>  (54) 
2JH0_701_D_1247

>  <ChainId>  (54) 
D

>  <AsymId>  (54) 
D

>  <SeqNum>  (54) 
1247

>  <Name>  (54) 
(2R)-2-(5-CHLORO-2-THIENYL)-N-{(3S)-1-[(1S)-1-METHYL-2-MORPHOLIN-4-YL-2-OXOETHYL]-2-OXOPYRROLIDIN-3-YL}PROPENE-1-SULFONAMIDE

>  <SystematicName>  (54) 
(E)-2-(5-chlorothiophen-2-yl)-N-[(3S)-1-[(2S)-1-morpholin-4-yl-1-oxo-propan-2-yl]-2-oxo-pyrrolidin-3-yl]prop-1-ene-1-sulfonamide

>  <Synonyms>  (54) 


>  <Type>  (54) 
NON-POLYMER

>  <Formula>  (54) 
C18 H24 Cl N3 O5 S2

>  <ObservedFormula>  (54) 
C18 S2 Cl N3 O5

>  <MolecularWeight>  (54) 
461.983

>  <ModifiedDate>  (54) 
2011-06-04

>  <Parent>  (54) 


>  <OneLetterCode>  (54) 


>  <SubcomponentList>  (54) 


>  <AmbiguousFlag>  (54) 


>  <InsertionCode>  (54) 


>  <InstanceId>  (54) 
2JH0_701_D_1247

>  <ChemCompId>  (54) 
701

>  <PdbId>  (54) 
2JH0

>  <ResidueNumber>  (54) 
1247

>  <InChI>  (54) 
InChI=1S/C18H24ClN3O5S2/c1-12(15-3-4-16(19)28-15)11-29(25,26)20-14-5-6-22(18(14)24)13(2)17(23)21-7-9-27-10-8-21/h3-4,11,13-14,20H,5-10H2,1-2H3/b12-11+/t13-,14-/m0/s1

>  <InChIKey>  (54) 
YMJHMJLNQLVUAV-GHYUOPHCSA-N

>  <SMILES>  (54) 
C[C@@H](C(=O)N1CCOCC1)N2CC[C@@H](C2=O)NS(=O)(=O)\C=C(/C)\c3ccc(s3)Cl

>  <MissingHeavyAtoms>  (54) 
0

>  <Model>  (54) 
1

>  <AltIds>  (54) 


>  <pKI>  (54) 
8.7

>  <ChemblID>  (54) 
CHEMBL391640

>  <standardized_canonical_smiles>  (54) 
C/C(=C\S(=O)(=O)N[C@H]1CCN([C@@H](C)C(=O)N2CCOCC2)C1=O)c1ccc(Cl)s1

$$$$
2JH6_894_D_1249
     RDKit          3D

 28 30  0  0  0  0  0  0  0  0999 V2000
   10.1820   25.4840   46.0270 Cl  0  0  0  0  0  0  0  0  0  0  0  0
   10.3440   23.9520   46.8200 C   0  0  0  0  0  0  0  0  0  0  0  0
   11.3340   22.9690   46.4370 C   0  0  0  0  0  0  0  0  0  0  0  0
   11.2600   21.8240   47.3090 C   0  0  0  0  0  0  0  0  0  0  0  0
   10.2240   21.9710   48.3000 C   0  0  0  0  0  0  0  0  0  0  0  0
    9.8880   20.9240   49.3310 C   0  0  0  0  0  0  0  0  0  0  0  0
    9.6460   18.2320   49.8450 S   0  0  0  0  0  0  0  0  0  0  0  0
    9.7820   17.0120   49.1100 O   0  0  0  0  0  0  0  0  0  0  0  0
   10.4020   18.4090   51.0490 O   0  0  0  0  0  0  0  0  0  0  0  0
    8.1290   18.3930   50.3470 N   0  0  0  0  0  0  0  0  0  0  0  0
    7.0220   17.9620   49.4970 C   0  0  0  0  0  0  0  0  0  0  0  0
    6.0160   17.0240   50.2100 C   0  0  0  0  0  0  0  0  0  0  0  0
    4.6750   17.3830   49.5330 C   0  0  0  0  0  0  0  0  0  0  0  0
    6.1860   19.1020   48.9300 C   0  0  0  0  0  0  0  0  0  0  0  0
    6.6360   20.2010   48.6120 O   0  0  0  0  0  0  0  0  0  0  0  0
    4.9020   18.6790   48.8700 N   0  0  0  0  0  0  0  0  0  0  0  0
    3.8220   19.4540   48.2360 C   0  0  0  0  0  0  0  0  0  0  0  0
    3.4530   18.9040   46.8410 C   0  0  0  0  0  0  0  0  0  0  0  0
    2.5720   19.5120   49.1110 C   0  0  0  0  0  0  0  0  0  0  0  0
    1.5710   18.9070   48.7750 O   0  0  0  0  0  0  0  0  0  0  0  0
    2.6100   20.2310   50.2580 N   0  0  0  0  0  0  0  0  0  0  0  0
    1.4200   20.2970   51.1100 C   0  0  0  0  0  0  0  0  0  0  0  0
    1.7920   19.9460   52.5430 C   0  0  0  0  0  0  0  0  0  0  0  0
    2.9090   20.7370   52.9860 O   0  0  0  0  0  0  0  0  0  0  0  0
    4.0810   20.5440   52.1800 C   0  0  0  0  0  0  0  0  0  0  0  0
    3.7670   21.0000   50.7480 C   0  0  0  0  0  0  0  0  0  0  0  0
    9.4150   23.4750   48.1860 S   0  0  0  0  0  0  0  0  0  0  0  0
   10.0430   19.5390   48.6910 C   0  0  0  0  0  0  0  0  0  0  0  0
  2  1  1  0
  3  2  2  0
 27  2  1  0
  4  3  1  0
  5  4  2  0
  6  5  1  0
 27  5  1  0
 28  6  1  0
  8  7  2  0
  9  7  2  0
 10  7  1  0
 28  7  1  0
 11 10  1  0
 12 11  1  0
 14 11  1  0
 13 12  1  0
 16 13  1  0
 15 14  2  0
 16 14  1  0
 17 16  1  0
 18 17  1  0
 19 17  1  0
 20 19  2  0
 21 19  1  0
 22 21  1  0
 26 21  1  0
 23 22  1  0
 24 23  1  0
 25 24  1  0
 26 25  1  0
A    1
CL1
A    2
C1
A    3
C2
A    4
C3
A    5
C4
A    6
C9
A    7
S1
A    8
O2
A    9
O1
A   10
N1
A   11
C12
A   12
C13
A   13
C14
A   14
C15
A   15
O3
A   16
N2
A   17
C16
A   18
C17
A   19
C18
A   20
O4
A   21
N3
A   22
C19
A   23
C20
A   24
O5
A   25
C22
A   26
C23
A   27
S6
A   28
C6
M  END
>  <Id>  (55) 
2JH6_894_D_1249

>  <ChainId>  (55) 
D

>  <AsymId>  (55) 
F

>  <SeqNum>  (55) 
1249

>  <Name>  (55) 
2-(5-CHLORO-2-THIENYL)-N-{(3S)-1-[(1S)-1-METHYL-2-MORPHOLIN-4-YL-2-OXOETHYL]-2-OXOPYRROLIDIN-3-YL}ETHANESULFONAMIDE

>  <SystematicName>  (55) 
2-(5-chlorothiophen-2-yl)-N-[(3S)-1-[(2S)-1-morpholin-4-yl-1-oxo-propan-2-yl]-2-oxo-pyrrolidin-3-yl]ethanesulfonamide

>  <Synonyms>  (55) 


>  <Type>  (55) 
NON-POLYMER

>  <Formula>  (55) 
C17 H24 Cl N3 O5 S2

>  <ObservedFormula>  (55) 
C17 S2 Cl N3 O5

>  <MolecularWeight>  (55) 
449.973

>  <ModifiedDate>  (55) 
2011-06-04

>  <Parent>  (55) 


>  <OneLetterCode>  (55) 


>  <SubcomponentList>  (55) 


>  <AmbiguousFlag>  (55) 


>  <InsertionCode>  (55) 


>  <InstanceId>  (55) 
2JH6_894_D_1249

>  <ChemCompId>  (55) 
894

>  <PdbId>  (55) 
2JH6

>  <ResidueNumber>  (55) 
1249

>  <InChI>  (55) 
InChI=1S/C17H24ClN3O5S2/c1-12(16(22)20-7-9-26-10-8-20)21-6-4-14(17(21)23)19-28(24,25)11-5-13-2-3-15(18)27-13/h2-3,12,14,19H,4-11H2,1H3/t12-,14-/m0/s1

>  <InChIKey>  (55) 
IAUZEBLXCOCAFL-JSGCOSHPSA-N

>  <SMILES>  (55) 
C[C@@H](C(=O)N1CCOCC1)N2CC[C@@H](C2=O)NS(=O)(=O)CCc3ccc(s3)Cl

>  <MissingHeavyAtoms>  (55) 
0

>  <Model>  (55) 
1

>  <AltIds>  (55) 


>  <pKI>  (55) 
7.77

>  <ChemblID>  (55) 
CHEMBL391737

>  <standardized_canonical_smiles>  (55) 
C[C@@H](C(=O)N1CCOCC1)N1CC[C@H](NS(=O)(=O)CCc2ccc(Cl)s2)C1=O

$$$$
2R2M_I50_B_5000
     RDKit          3D

 30 31  0  0  0  0  0  0  0  0999 V2000
   11.2820  -11.8930   24.1440 C   0  0  0  0  0  0  0  0  0  0  0  0
   12.8320  -10.8210   22.8090 O   0  0  0  0  0  0  0  0  0  0  0  0
   13.5960  -11.6280   20.7120 C   0  0  0  0  0  0  0  0  0  0  0  0
   15.9110  -12.6250   20.6430 C   0  0  0  0  0  0  0  0  0  0  0  0
   17.4290  -12.4680   20.7380 C   0  0  0  0  0  0  0  0  0  0  0  0
   18.0500  -13.6860   21.4320 C   0  0  0  0  0  0  0  0  0  0  0  0
   17.3890  -14.3750   22.4770 C   0  0  0  0  0  0  0  0  0  0  0  0
   18.0100  -15.4820   23.0830 C   0  0  0  0  0  0  0  0  0  0  0  0
   19.2980  -15.9110   22.6540 C   0  0  0  0  0  0  0  0  0  0  0  0
   19.9610  -15.2270   21.6180 C   0  0  0  0  0  0  0  0  0  0  0  0
   17.9920  -17.4000   24.6850 C   0  0  0  0  0  0  0  0  0  0  0  0
   18.5950  -17.1030   26.0710 C   0  0  0  0  0  0  0  0  0  0  0  0
   22.2290  -15.9830   25.3400 C   0  0  0  0  0  0  0  0  0  0  0  0
   19.7770  -14.8320   26.1720 C   0  0  0  0  0  0  0  0  0  0  0  0
   11.0940  -10.7580   24.6540 N   0  0  0  0  0  0  0  0  0  0  0  0
   10.3040  -12.9490   24.3330 N   0  0  0  0  0  0  0  0  0  0  0  0
   12.3530  -12.0830   23.1850 N   0  0  0  0  0  0  0  0  0  0  0  0
   12.9150  -10.4740   21.4530 C   0  0  0  0  0  0  0  0  0  0  0  0
   15.0380  -11.4860   20.8980 N   0  0  0  0  0  0  0  0  0  0  0  0
   15.4670  -13.6050   20.1460 O   0  0  0  0  0  0  0  0  0  0  0  0
   19.3340  -14.1170   21.0090 C   0  0  0  0  0  0  0  0  0  0  0  0
   20.1610  -13.2430   19.6960 Cl  0  0  0  0  0  0  0  0  0  0  0  0
   16.1630  -13.9770   22.9160 F   0  0  0  0  0  0  0  0  0  0  0  0
   17.3490  -16.1960   24.1720 N   0  0  0  0  0  0  0  0  0  0  0  0
   19.8580  -16.2290   25.9150 C   0  0  0  0  0  0  0  0  0  0  0  0
   21.0880  -16.7970   25.4930 C   0  0  0  0  0  0  0  0  0  0  0  0
   22.1470  -14.5890   25.5970 C   0  0  0  0  0  0  0  0  0  0  0  0
   20.9160  -14.0200   26.0160 C   0  0  0  0  0  0  0  0  0  0  0  0
   17.6690  -16.4360   26.8250 F   0  0  0  0  0  0  0  0  0  0  0  0
   18.8830  -18.3030   26.6480 F   0  0  0  0  0  0  0  0  0  0  0  0
 15  1  2  0
 16  1  1  0
 17  1  1  0
 17  2  1  0
 18  2  1  0
 18  3  1  0
 19  3  1  0
  5  4  1  0
 19  4  1  0
 20  4  2  0
  6  5  1  0
  7  6  2  0
 21  6  1  0
  8  7  1  0
 23  7  1  0
  9  8  2  0
 24  8  1  0
 10  9  1  0
 21 10  2  0
 12 11  1  0
 24 11  1  0
 25 12  1  0
 29 12  1  0
 30 12  1  0
 26 13  2  0
 27 13  1  0
 25 14  2  0
 28 14  1  0
 22 21  1  0
 26 25  1  0
 28 27  2  0
A    1
C1
A    2
O5
A    3
C7
A    4
C9
A    5
C11
A    6
C12
A    7
C13
A    8
C14
A    9
C15
A   10
C16
A   11
C21
A   12
C24
A   13
C27
A   14
C30
A   15
N2
A   16
N3
A   17
N4
A   18
C6
A   19
N8
A   20
O10
A   21
C17
A   22
CL18
A   23
F19
A   24
N20
A   25
C25
A   26
C26
A   27
C28
A   28
C29
A   29
F31
A   30
F32
M  END
>  <Id>  (56) 
2R2M_I50_B_5000

>  <ChainId>  (56) 
B

>  <AsymId>  (56) 
D

>  <SeqNum>  (56) 
5000

>  <Name>  (56) 
N-[2-({[amino(imino)methyl]amino}oxy)ethyl]-2-{6-chloro-3-[(2,2-difluoro-2-phenylethyl)amino]-2-fluorophenyl}acetamide

>  <SystematicName>  (56) 
N-(2-carbamimidamidooxyethyl)-2-[6-chloro-3-[(2,2-difluoro-2-phenyl-ethyl)amino]-2-fluoro-phenyl]ethanamide

>  <Synonyms>  (56) 


>  <Type>  (56) 
NON-POLYMER

>  <Formula>  (56) 
C19 H21 Cl F3 N5 O2

>  <ObservedFormula>  (56) 
C19 F3 Cl N5 O2

>  <MolecularWeight>  (56) 
443.851

>  <ModifiedDate>  (56) 
2011-06-04

>  <Parent>  (56) 


>  <OneLetterCode>  (56) 


>  <SubcomponentList>  (56) 


>  <AmbiguousFlag>  (56) 


>  <InsertionCode>  (56) 


>  <InstanceId>  (56) 
2R2M_I50_B_5000

>  <ChemCompId>  (56) 
I50

>  <PdbId>  (56) 
2R2M

>  <ResidueNumber>  (56) 
5000

>  <InChI>  (56) 
InChI=1S/C19H21ClF3N5O2/c20-14-6-7-15(27-11-19(22,23)12-4-2-1-3-5-12)17(21)13(14)10-16(29)26-8-9-30-28-18(24)25/h1-7,27H,8-11H2,(H,26,29)(H4,24,25,28)

>  <InChIKey>  (56) 
DZEJHPMTDNDECN-UHFFFAOYSA-N

>  <SMILES>  (56) 
[H]/N=C(/N)\NOCCNC(=O)Cc1c(ccc(c1F)NCC(c2ccccc2)(F)F)Cl

>  <MissingHeavyAtoms>  (56) 
0

>  <Model>  (56) 
1

>  <AltIds>  (56) 


>  <pKI>  (56) 
7.33

>  <ChemblID>  (56) 
CHEMBL401842

>  <standardized_canonical_smiles>  (56) 
NC(N)=NOCCNC(=O)Cc1c(Cl)ccc(NCC(F)(F)c2ccccc2)c1F

$$$$
3C27_DKK_B_5000
     RDKit          3D

 31 32  0  0  0  0  0  0  0  0999 V2000
   11.2340  -11.8410   24.0240 C   0  0  0  0  0  0  0  0  0  0  0  0
   13.0470  -11.0050   22.7690 O   0  0  0  0  0  0  0  0  0  0  0  0
   13.8110  -11.4750   20.5450 C   0  0  0  0  0  0  0  0  0  0  0  0
   16.1450  -12.4770   20.3920 C   0  0  0  0  0  0  0  0  0  0  0  0
   17.6400  -12.3090   20.7360 C   0  0  0  0  0  0  0  0  0  0  0  0
   18.1960  -13.5850   21.3850 C   0  0  0  0  0  0  0  0  0  0  0  0
   19.4380  -14.0920   20.9140 C   0  0  0  0  0  0  0  0  0  0  0  0
   19.9940  -15.2520   21.4730 C   0  0  0  0  0  0  0  0  0  0  0  0
   19.3090  -15.9160   22.5060 C   0  0  0  0  0  0  0  0  0  0  0  0
   18.0540  -15.4150   22.9840 C   0  0  0  0  0  0  0  0  0  0  0  0
   20.1550  -13.3380   19.7890 C   0  0  0  0  0  0  0  0  0  0  0  0
   18.0710  -17.2740   24.6170 C   0  0  0  0  0  0  0  0  0  0  0  0
   20.9420  -13.9180   26.1680 C   0  0  0  0  0  0  0  0  0  0  0  0
   19.8240  -14.7250   26.2890 C   0  0  0  0  0  0  0  0  0  0  0  0
   11.1650  -10.7000   24.5560 N   0  0  0  0  0  0  0  0  0  0  0  0
   10.4210  -12.9530   24.5080 N   0  0  0  0  0  0  0  0  0  0  0  0
   12.1990  -12.1080   22.9760 N   0  0  0  0  0  0  0  0  0  0  0  0
   13.0770  -10.4740   21.4600 C   0  0  0  0  0  0  0  0  0  0  0  0
   15.2510  -11.3940   20.7940 N   0  0  0  0  0  0  0  0  0  0  0  0
   15.6960  -13.5550   20.1100 O   0  0  0  0  0  0  0  0  0  0  0  0
   17.5100  -14.2400   22.4200 C   0  0  0  0  0  0  0  0  0  0  0  0
   16.3160  -13.7560   22.8610 F   0  0  0  0  0  0  0  0  0  0  0  0
   20.6850  -12.7820   18.9580 N   0  0  0  0  0  0  0  0  0  0  0  0
   17.3670  -16.1260   24.0650 N   0  0  0  0  0  0  0  0  0  0  0  0
   18.6150  -16.9550   26.0290 C   0  0  0  0  0  0  0  0  0  0  0  0
   17.7260  -16.2500   26.7790 F   0  0  0  0  0  0  0  0  0  0  0  0
   18.8690  -18.1350   26.6550 F   0  0  0  0  0  0  0  0  0  0  0  0
   19.8800  -16.0980   25.9060 C   0  0  0  0  0  0  0  0  0  0  0  0
   21.0370  -16.6250   25.3790 N   0  0  0  0  0  0  0  0  0  0  0  0
   22.1640  -15.8090   25.2500 C   0  0  0  0  0  0  0  0  0  0  0  0
   22.1230  -14.4430   25.6390 C   0  0  0  0  0  0  0  0  0  0  0  0
 15  1  2  0
 16  1  1  0
 17  1  1  0
 17  2  1  0
 18  2  1  0
 18  3  1  0
 19  3  1  0
  5  4  1  0
 19  4  1  0
 20  4  2  0
  6  5  1  0
  7  6  2  0
 21  6  1  0
  8  7  1  0
 11  7  1  0
  9  8  2  0
 10  9  1  0
 21 10  2  0
 24 10  1  0
 23 11  3  0
 24 12  1  0
 25 12  1  0
 14 13  2  0
 31 13  1  0
 28 14  1  0
 22 21  1  0
 26 25  1  0
 27 25  1  0
 28 25  1  0
 29 28  2  0
 30 29  1  0
 31 30  2  0
A    1
C1
A    2
O5
A    3
C7
A    4
C9
A    5
C11
A    6
C12
A    7
C13
A    8
C14
A    9
C15
A   10
C16
A   11
C19
A   12
C22
A   13
C30
A   14
C31
A   15
N2
A   16
N3
A   17
N4
A   18
C6
A   19
N8
A   20
O10
A   21
C17
A   22
F18
A   23
N20
A   24
N21
A   25
C23
A   26
F24
A   27
F25
A   28
C26
A   29
N27
A   30
C28
A   31
C29
M  END
>  <Id>  (57) 
3C27_DKK_B_5000

>  <ChainId>  (57) 
B

>  <AsymId>  (57) 
D

>  <SeqNum>  (57) 
5000

>  <Name>  (57) 
N-[2-(carbamimidamidooxy)ethyl]-2-{6-cyano-3-[(2,2-difluoro-2-pyridin-2-ylethyl)amino]-2-fluorophenyl}acetamide

>  <SystematicName>  (57) 
N-(2-carbamimidamidooxyethyl)-2-[6-cyano-3-[(2,2-difluoro-2-pyridin-2-yl-ethyl)amino]-2-fluoro-phenyl]ethanamide

>  <Synonyms>  (57) 


>  <Type>  (57) 
NON-POLYMER

>  <Formula>  (57) 
C19 H20 F3 N7 O2

>  <ObservedFormula>  (57) 
C19 F3 N7 O2

>  <MolecularWeight>  (57) 
435.403

>  <ModifiedDate>  (57) 
2011-06-04

>  <Parent>  (57) 


>  <OneLetterCode>  (57) 


>  <SubcomponentList>  (57) 


>  <AmbiguousFlag>  (57) 
N

>  <InsertionCode>  (57) 


>  <InstanceId>  (57) 
3C27_DKK_B_5000

>  <ChemCompId>  (57) 
DKK

>  <PdbId>  (57) 
3C27

>  <ResidueNumber>  (57) 
5000

>  <InChI>  (57) 
InChI=1S/C19H20F3N7O2/c20-17-13(9-16(30)27-7-8-31-29-18(24)25)12(10-23)4-5-14(17)28-11-19(21,22)15-3-1-2-6-26-15/h1-6,28H,7-9,11H2,(H,27,30)(H4,24,25,29)

>  <InChIKey>  (57) 
STHCHQXQLDMISY-UHFFFAOYSA-N

>  <SMILES>  (57) 
[H]/N=C(\N)/NOCCNC(=O)Cc1c(ccc(c1F)NCC(c2ccccn2)(F)F)C#N

>  <MissingHeavyAtoms>  (57) 
0

>  <Model>  (57) 
1

>  <AltIds>  (57) 


>  <pKI>  (57) 
8.92

>  <ChemblID>  (57) 
CHEMBL257543

>  <standardized_canonical_smiles>  (57) 
N#Cc1ccc(NCC(F)(F)c2ccccn2)c(F)c1CC(=O)NCCON=C(N)N

$$$$
1XM1_GAH_A_1001
     RDKit          3D

 55 58  0  0  0  0  0  0  0  0999 V2000
   13.7060  -19.2670   10.7670 C   0  0  0  0  0  0  0  0  0  0  0  0
   14.1280  -20.3570   11.9360 C   0  0  0  0  0  0  0  0  0  0  0  0
   15.2980  -21.4620   11.7250 C   0  0  0  0  0  0  0  0  0  0  0  0
   15.6760  -22.1860   13.0470 N   0  0  0  0  0  0  0  0  0  0  0  0
   14.9220  -23.2880   13.5180 C   0  0  0  0  0  0  0  0  0  0  0  0
   13.8490  -23.7540   12.8280 N   0  0  0  0  0  0  0  0  0  0  0  0
   15.2670  -23.8870   14.6630 N   0  0  0  0  0  0  0  0  0  0  0  0
   14.4740  -19.5630   13.2350 C   0  0  0  0  0  0  0  0  0  0  0  0
   13.6420  -18.2730   13.5800 C   0  0  0  0  0  0  0  0  0  0  0  0
   12.2280  -18.1780   12.9690 C   0  0  0  0  0  0  0  0  0  0  0  0
   11.5290  -16.9310   13.6410 C   0  0  0  0  0  0  0  0  0  0  0  0
   11.2270  -16.9330   14.8490 O   0  0  0  0  0  0  0  0  0  0  0  0
   12.4700  -18.2580   11.2930 C   0  0  0  0  0  0  0  0  0  0  0  0
    8.8610  -14.2160   10.2760 C   0  0  0  0  0  0  0  0  0  0  0  0
    7.8490  -15.1160   11.2310 C   0  0  0  0  0  0  0  0  0  0  0  0
    6.4210  -15.2160   10.5670 C   0  0  0  0  0  0  0  0  0  0  0  0
    5.7520  -13.7830   10.3620 C   0  0  0  0  0  0  0  0  0  0  0  0
    6.6920  -12.7780    9.5740 C   0  0  0  0  0  0  0  0  0  0  0  0
    8.1560  -12.7400   10.1430 C   0  0  0  0  0  0  0  0  0  0  0  0
   11.1710  -15.9630   12.6680 N   0  0  0  0  0  0  0  0  0  0  0  0
   10.5220  -14.5770   12.4180 C   0  0  0  0  0  0  0  0  0  0  0  0
   10.3280  -14.0530   10.9040 C   0  0  0  0  0  0  0  0  0  0  0  0
   11.0410  -13.3620   13.3350 C   0  0  0  0  0  0  0  0  0  0  0  0
   12.2000  -13.1210   13.1950 O   0  0  0  0  0  0  0  0  0  0  0  0
   10.3280  -12.4840   14.2480 N   0  0  0  0  0  0  0  0  0  0  0  0
   10.3270  -11.1140   14.8530 C   0  0  0  0  0  0  0  0  0  0  0  0
   11.6130  -11.0880   15.8110 C   0  0  0  0  0  0  0  0  0  0  0  0
   11.5230  -11.8760   16.7840 O   0  0  0  0  0  0  0  0  0  0  0  0
    9.0910  -11.5050   15.5140 C   0  0  0  0  0  0  0  0  0  0  0  0
    9.0850  -12.9480   14.8850 C   0  0  0  0  0  0  0  0  0  0  0  0
   12.8270  -10.3140   15.7160 N   0  0  0  0  0  0  0  0  0  0  0  0
   14.2020  -10.6690   16.3170 C   0  0  0  0  0  0  0  0  0  0  0  0
   15.0560  -11.9750   16.1630 C   0  0  0  0  0  0  0  0  0  0  0  0
   16.1310  -11.9720   16.7790 O   0  0  0  0  0  0  0  0  0  0  0  0
   15.1370   -9.4050   15.9120 C   0  0  0  0  0  0  0  0  0  0  0  0
   15.7740   -9.4280   14.4240 C   0  0  0  0  0  0  0  0  0  0  0  0
   16.9700  -10.2100   14.1760 C   0  0  0  0  0  0  0  0  0  0  0  0
   15.2300   -8.6680   13.2710 C   0  0  0  0  0  0  0  0  0  0  0  0
   17.6180  -10.2660   12.8830 C   0  0  0  0  0  0  0  0  0  0  0  0
   15.9150   -8.7300   11.9330 C   0  0  0  0  0  0  0  0  0  0  0  0
   17.1150   -9.5380   11.7580 C   0  0  0  0  0  0  0  0  0  0  0  0
   17.7830   -9.6220   10.5380 O   0  0  0  0  0  0  0  0  0  0  0  0
   14.9460  -13.1220   15.5170 N   0  0  0  0  0  0  0  0  0  0  0  0
   15.5660  -14.3410   15.0850 C   0  0  0  0  0  0  0  0  0  0  0  0
   14.6100  -15.4850   15.4940 C   0  0  0  0  0  0  0  0  0  0  0  0
   13.1350  -16.7230   17.3470 C   0  0  0  0  0  0  0  0  0  0  0  0
   14.1360  -15.5770   16.9490 C   0  0  0  0  0  0  0  0  0  0  0  0
   12.7830  -16.5960   18.8670 C   0  0  0  0  0  0  0  0  0  0  0  0
   11.8000  -17.6380   19.3280 N   0  0  0  0  0  0  0  0  0  0  0  0
   10.9210  -17.4290   20.3100 C   0  0  0  0  0  0  0  0  0  0  0  0
   10.7860  -16.3220   21.0050 N   0  0  0  0  0  0  0  0  0  0  0  0
   10.0960  -18.4500   20.6140 N   0  0  0  0  0  0  0  0  0  0  0  0
   15.9070  -14.3710   13.5660 C   0  0  0  0  0  0  0  0  0  0  0  0
   15.4680  -15.1870   12.8500 O   0  0  0  0  0  0  0  0  0  0  0  0
   16.7470  -13.3900   12.9960 N   0  0  0  0  0  0  0  0  0  0  0  0
  2  1  1  0
 13  1  1  0
  3  2  1  0
  8  2  1  0
  4  3  1  0
  5  4  1  0
  6  5  2  0
  7  5  1  0
  9  8  1  0
 10  9  1  0
 11 10  1  0
 13 10  1  0
 12 11  2  0
 20 11  1  0
 15 14  1  0
 19 14  1  0
 22 14  1  0
 16 15  1  0
 17 16  1  0
 18 17  1  0
 19 18  1  0
 21 20  1  0
 22 21  1  0
 23 21  1  0
 24 23  2  0
 25 23  1  0
 26 25  1  0
 30 25  1  0
 27 26  1  0
 29 26  1  0
 28 27  2  0
 31 27  1  0
 30 29  1  0
 32 31  1  0
 33 32  1  0
 35 32  1  0
 34 33  2  0
 43 33  1  0
 36 35  1  0
 37 36  2  0
 38 36  1  0
 39 37  1  0
 40 38  2  0
 41 39  2  0
 41 40  1  0
 42 41  1  0
 44 43  1  0
 45 44  1  0
 53 44  1  0
 47 45  1  0
 47 46  1  0
 48 46  1  0
 49 48  1  0
 50 49  1  0
 51 50  2  0
 52 50  1  0
 54 53  2  0
 55 53  1  0
A    1
C1
A    2
C6
A    3
C7
A    4
N8
A    5
C9
A    6
N11
A    7
N10
A    8
C5
A    9
C4
A   10
C3
A   11
C12
A   12
O13
A   13
C2
A   14
C18
A   15
C23
A   16
C22
A   17
C21
A   18
C20
A   19
C19
A   20
N14
A   21
C15
A   22
C16
A   23
C17
A   24
O24
A   25
N25
A   26
C28
A   27
C29
A   28
O30
A   29
C27
A   30
C26
A   31
N31
A   32
C32
A   33
C41
A   34
O42
A   35
C33
A   36
C34
A   37
C39
A   38
C35
A   39
C38
A   40
C36
A   41
C37
A   42
O40
A   43
N43
A   44
C44
A   45
C48
A   46
C50
A   47
C49
A   48
C51
A   49
N52
A   50
C53
A   51
N55
A   52
N54
A   53
C45
A   54
O46
A   55
N47
M  END
>  <Id>  (58) 
1XM1_GAH_A_1001

>  <ChainId>  (58) 
A

>  <AsymId>  (58) 
C

>  <SeqNum>  (58) 
1001

>  <Name>  (58) 
N-{[(2S)-1-(N-{[4-({[AMINO(IMINO)METHYL]AMINO}METHYL)CYCLOHEXYL]CARBONYL}-3-CYCLOHEXYL-L-ALANYL)AZETIDIN-2-YL]CARBONYL}-L-TYROSYL-N~6~-[AMINO(IMINO)METHYL]-L-LYSINAMIDE

>  <SystematicName>  (58) 
(2S)-N-[(2R)-1-[[(2S)-1-azanyl-6-carbamimidamido-1-oxo-hexan-2-yl]amino]-3-(4-hydroxyphenyl)-1-oxo-propan-2-yl]-1-[(2R)-2-[[4-(carbamimidamidomethyl)cyclohexyl]carbonylamino]-3-cyclohexyl-propanoyl]azetidine-2-carboxamide

>  <Synonyms>  (58) 
TRANS-4-(GUANIDINOMETHYL)-CYCLOHEXANE-L-YL-D-3-CYCLOHEXYLALANYL-L-AZETIDINE-2-YL-D-TYROSINYL-L-HOMOARGININAMIDE

>  <Type>  (58) 
peptide-like

>  <Formula>  (58) 
C38 H61 N11 O6

>  <ObservedFormula>  (58) 
C38 N11 O6

>  <MolecularWeight>  (58) 
767.961

>  <ModifiedDate>  (58) 
2012-01-05

>  <Parent>  (58) 


>  <OneLetterCode>  (58) 


>  <SubcomponentList>  (58) 
029 ZAL 02A DTY HRG NH2

>  <AmbiguousFlag>  (58) 
N

>  <InsertionCode>  (58) 


>  <InstanceId>  (58) 
1XM1_GAH_A_1001

>  <ChemCompId>  (58) 
GAH

>  <PdbId>  (58) 
1XM1

>  <ResidueNumber>  (58) 
1001

>  <InChI>  (58) 
InChI=1S/C38H61N11O6/c39-32(51)28(8-4-5-18-44-37(40)41)46-34(53)29(20-24-11-15-27(50)16-12-24)47-35(54)31-17-19-49(31)36(55)30(21-23-6-2-1-3-7-23)48-33(52)26-13-9-25(10-14-26)22-45-38(42)43/h11-12,15-16,23,25-26,28-31,50H,1-10,13-14,17-22H2,(H2,39,51)(H,46,53)(H,47,54)(H,48,52)(H4,40,41,44)(H4,42,43,45)/t25-,26+,28-,29+,30+,31-/m0/s1

>  <InChIKey>  (58) 
PCCHJIAHIWBHDQ-CNXMXSPQSA-N

>  <SMILES>  (58) 
[H]/N=C(\N)/NCCCC[C@@H](C(=O)N)NC(=O)[C@@H](Cc1ccc(cc1)O)NC(=O)[C@@H]2CCN2C(=O)[C@@H](CC3CCCCC3)NC(=O)C4CCC(CC4)CN/C(=N/[H])/N

>  <MissingHeavyAtoms>  (58) 
0

>  <Model>  (58) 
1

>  <AltIds>  (58) 


>  <pKI>  (58) 
8.52

>  <ChemblID>  (58) 
CHEMBL2368546

>  <standardized_canonical_smiles>  (58) 
N=C(N)NCCCC[C@@H](NC(=O)[C@@H](Cc1ccc(O)cc1)NC(=O)[C@@H]1CCN1C(=O)[C@H](CC1CCCCC1)NC(=O)[C@H]1CC[C@H](CNC(=N)N)CC1)C(N)=O

$$$$
2ZFP_19U_H_801
     RDKit          3D

 22 23  0  0  0  0  0  0  0  0999 V2000
   16.5370  -15.8360   23.3100 N   0  0  0  0  0  0  0  0  0  0  0  0
   17.7460  -15.0060   23.0980 C   0  0  0  0  0  0  0  0  0  0  0  0
   17.3840  -13.6710   22.4600 C   0  0  0  0  0  0  0  0  0  0  0  0
   16.3750  -13.1400   22.9140 O   0  0  0  0  0  0  0  0  0  0  0  0
   18.3830  -14.7220   24.4870 C   0  0  0  0  0  0  0  0  0  0  0  0
   19.8130  -14.1810   24.2950 C   0  0  0  0  0  0  0  0  0  0  0  0
   18.1120  -13.1040   21.4600 N   0  0  0  0  0  0  0  0  0  0  0  0
   17.7820  -11.7870   20.9290 C   0  0  0  0  0  0  0  0  0  0  0  0
   16.3290  -11.6340   20.5720 C   0  0  0  0  0  0  0  0  0  0  0  0
   15.7310  -12.5940   20.1030 O   0  0  0  0  0  0  0  0  0  0  0  0
   18.7040  -11.8010   19.6800 C   0  0  0  0  0  0  0  0  0  0  0  0
   19.9930  -12.4470   20.2640 C   0  0  0  0  0  0  0  0  0  0  0  0
   19.4170  -13.6460   21.0650 C   0  0  0  0  0  0  0  0  0  0  0  0
   15.6920  -10.4550   20.8000 N   0  0  0  0  0  0  0  0  0  0  0  0
   14.3020  -10.3570   20.3610 C   0  0  0  0  0  0  0  0  0  0  0  0
   13.3070  -10.3530   21.5240 C   0  0  0  0  0  0  0  0  0  0  0  0
   12.4580  -11.4560   21.6750 C   0  0  0  0  0  0  0  0  0  0  0  0
   11.5310  -11.5060   22.7180 C   0  0  0  0  0  0  0  0  0  0  0  0
   11.4440  -10.4450   23.6260 C   0  0  0  0  0  0  0  0  0  0  0  0
   12.2860   -9.3320   23.4900 C   0  0  0  0  0  0  0  0  0  0  0  0
   13.2110   -9.2950   22.4380 C   0  0  0  0  0  0  0  0  0  0  0  0
   12.1580   -8.0080   24.6450 Cl  0  0  0  0  0  0  0  0  0  0  0  0
  2  1  1  0
  3  2  1  0
  5  2  1  0
  4  3  2  0
  7  3  1  0
  6  5  1  0
  8  7  1  0
 13  7  1  0
  9  8  1  0
 11  8  1  0
 10  9  2  0
 14  9  1  0
 12 11  1  0
 13 12  1  0
 15 14  1  0
 16 15  1  0
 17 16  2  0
 21 16  1  0
 18 17  1  0
 19 18  2  0
 20 19  1  0
 21 20  2  0
 22 20  1  0
A    1
N
A    2
C15
A    3
C14
A    4
O32
A    5
C1
A    6
C17
A    7
N1
A    8
C12
A    9
C7
A   10
O22
A   11
C2
A   12
C3
A   13
C4
A   14
N23
A   15
C24
A   16
C25
A   17
C26
A   18
C27
A   19
C28
A   20
C29
A   21
C30
A   22
CL21
M  END
>  <Id>  (59) 
2ZFP_19U_H_801

>  <ChainId>  (59) 
H

>  <AsymId>  (59) 
F

>  <SeqNum>  (59) 
801

>  <Name>  (59) 
1-[(2R)-2-aminobutanoyl]-N-(3-chlorobenzyl)-L-prolinamide

>  <SystematicName>  (59) 
(2S)-1-[(2R)-2-azanylbutanoyl]-N-[(3-chlorophenyl)methyl]pyrrolidine-2-carboxamide

>  <Synonyms>  (59) 


>  <Type>  (59) 
peptide-like

>  <Formula>  (59) 
C16 H22 Cl N3 O2

>  <ObservedFormula>  (59) 
C16 Cl N3 O2

>  <MolecularWeight>  (59) 
323.818

>  <ModifiedDate>  (59) 
2012-01-11

>  <Parent>  (59) 


>  <OneLetterCode>  (59) 


>  <SubcomponentList>  (59) 
DBB PRO C2A

>  <AmbiguousFlag>  (59) 
N

>  <InsertionCode>  (59) 


>  <InstanceId>  (59) 
2ZFP_19U_H_801

>  <ChemCompId>  (59) 
19U

>  <PdbId>  (59) 
2ZFP

>  <ResidueNumber>  (59) 
801

>  <InChI>  (59) 
InChI=1S/C16H22ClN3O2/c1-2-13(18)16(22)20-8-4-7-14(20)15(21)19-10-11-5-3-6-12(17)9-11/h3,5-6,9,13-14H,2,4,7-8,10,18H2,1H3,(H,19,21)/t13-,14+/m1/s1

>  <InChIKey>  (59) 
OTYYXGRJXJFTCD-KGLIPLIRSA-N

>  <SMILES>  (59) 
CC[C@H](C(=O)N1CCC[C@H]1C(=O)NCc2cccc(c2)Cl)N

>  <MissingHeavyAtoms>  (59) 
0

>  <Model>  (59) 
1

>  <AltIds>  (59) 


>  <pKI>  (59) 
5.03

>  <ChemblID>  (59) 
CHEMBL596780

>  <standardized_canonical_smiles>  (59) 
CC[C@@H](N)C(=O)N1CCC[C@H]1C(=O)NCc1cccc(Cl)c1

$$$$
3DUX_64U_H_901
     RDKit          3D

 27 29  0  0  0  0  0  0  0  0999 V2000
   19.2230  -14.1140   24.5550 C   0  0  0  0  0  0  0  0  0  0  0  0
   19.4910  -13.7480   26.0370 C   0  0  0  0  0  0  0  0  0  0  0  0
   20.8000  -12.9330   26.1570 C   0  0  0  0  0  0  0  0  0  0  0  0
   21.9860  -13.7640   25.5820 C   0  0  0  0  0  0  0  0  0  0  0  0
   21.7380  -14.0550   24.0710 C   0  0  0  0  0  0  0  0  0  0  0  0
   20.4160  -14.8770   23.9260 C   0  0  0  0  0  0  0  0  0  0  0  0
   16.1710  -15.9180   23.2080 N   0  0  0  0  0  0  0  0  0  0  0  0
   17.3660  -15.0440   23.0940 C   0  0  0  0  0  0  0  0  0  0  0  0
   17.9320  -14.9390   24.5340 C   0  0  0  0  0  0  0  0  0  0  0  0
   17.0830  -13.6790   22.5060 C   0  0  0  0  0  0  0  0  0  0  0  0
   16.1630  -13.0030   22.9900 O   0  0  0  0  0  0  0  0  0  0  0  0
   17.7750  -13.1570   21.4440 N   0  0  0  0  0  0  0  0  0  0  0  0
   17.4290  -11.8450   20.9360 C   0  0  0  0  0  0  0  0  0  0  0  0
   15.9810  -11.7680   20.4910 C   0  0  0  0  0  0  0  0  0  0  0  0
   15.4240  -12.6860   19.9010 O   0  0  0  0  0  0  0  0  0  0  0  0
   18.3990  -11.6260   19.7770 C   0  0  0  0  0  0  0  0  0  0  0  0
   19.3320  -12.8270   19.7330 C   0  0  0  0  0  0  0  0  0  0  0  0
   18.8890  -13.8440   20.7900 C   0  0  0  0  0  0  0  0  0  0  0  0
   15.3670  -10.6120   20.8330 N   0  0  0  0  0  0  0  0  0  0  0  0
   14.0480  -10.3120   20.2910 C   0  0  0  0  0  0  0  0  0  0  0  0
   13.0700  -10.3010   21.4780 C   0  0  0  0  0  0  0  0  0  0  0  0
   12.1820  -11.3530   21.6650 C   0  0  0  0  0  0  0  0  0  0  0  0
   11.2970  -11.3430   22.7390 C   0  0  0  0  0  0  0  0  0  0  0  0
   11.2870  -10.2800   23.6420 C   0  0  0  0  0  0  0  0  0  0  0  0
   12.1770   -9.2260   23.4530 C   0  0  0  0  0  0  0  0  0  0  0  0
   13.0740   -9.2230   22.3770 C   0  0  0  0  0  0  0  0  0  0  0  0
   12.1650   -7.9020   24.5830 Cl  0  0  0  0  0  0  0  0  0  0  0  0
  2  1  1  0
  6  1  1  0
  9  1  1  0
  3  2  1  0
  4  3  1  0
  5  4  1  0
  6  5  1  0
  8  7  1  0
  9  8  1  0
 10  8  1  0
 11 10  2  0
 12 10  1  0
 13 12  1  0
 18 12  1  0
 14 13  1  0
 16 13  1  0
 15 14  2  0
 19 14  1  0
 17 16  1  0
 18 17  1  0
 20 19  1  0
 21 20  1  0
 22 21  2  0
 26 21  1  0
 23 22  1  0
 24 23  2  0
 25 24  1  0
 26 25  2  0
 27 25  1  0
A    1
C11
A    2
C12
A    3
C13
A    4
C16
A    5
C17
A    6
C18
A    7
N
A    8
C15
A    9
C1
A   10
C14
A   11
O32
A   12
N1
A   13
C5
A   14
C7
A   15
O22
A   16
C2
A   17
C3
A   18
C4
A   19
N23
A   20
C24
A   21
C25
A   22
C26
A   23
C27
A   24
C28
A   25
C29
A   26
C30
A   27
CL21
M  END
>  <Id>  (60) 
3DUX_64U_H_901

>  <ChainId>  (60) 
H

>  <AsymId>  (60) 
D

>  <SeqNum>  (60) 
901

>  <Name>  (60) 
3-cyclohexyl-D-alanyl-N-(3-chlorobenzyl)-L-prolinamide

>  <SystematicName>  (60) 
(2S)-1-[(2R)-2-azanyl-3-cyclohexyl-propanoyl]-N-[(3-chlorophenyl)methyl]pyrrolidine-2-carboxamide

>  <Synonyms>  (60) 
(2S)-1-((2R)-2-amino-3-cyclohexyl-propanoyl)-N-((3-chlorophenyl)methyl)pyrrolidine-2-carboxamide

>  <Type>  (60) 
peptide-like

>  <Formula>  (60) 
C21 H30 Cl N3 O2

>  <ObservedFormula>  (60) 
C21 Cl N3 O2

>  <MolecularWeight>  (60) 
391.935

>  <ModifiedDate>  (60) 
2011-11-17

>  <Parent>  (60) 


>  <OneLetterCode>  (60) 


>  <SubcomponentList>  (60) 
ZAL PRO C2A

>  <AmbiguousFlag>  (60) 
N

>  <InsertionCode>  (60) 


>  <InstanceId>  (60) 
3DUX_64U_H_901

>  <ChemCompId>  (60) 
64U

>  <PdbId>  (60) 
3DUX

>  <ResidueNumber>  (60) 
901

>  <InChI>  (60) 
InChI=1S/C21H30ClN3O2/c22-17-9-4-8-16(12-17)14-24-20(26)19-10-5-11-25(19)21(27)18(23)13-15-6-2-1-3-7-15/h4,8-9,12,15,18-19H,1-3,5-7,10-11,13-14,23H2,(H,24,26)/t18-,19+/m1/s1

>  <InChIKey>  (60) 
JGFCNVHEEMBVJG-MOPGFXCFSA-N

>  <SMILES>  (60) 
c1cc(cc(c1)Cl)CNC(=O)[C@@H]2CCCN2C(=O)[C@@H](CC3CCCCC3)N

>  <MissingHeavyAtoms>  (60) 
0

>  <Model>  (60) 
1

>  <AltIds>  (60) 


>  <pKI>  (60) 
7.0

>  <ChemblID>  (60) 
CHEMBL606184

>  <standardized_canonical_smiles>  (60) 
N[C@H](CC1CCCCC1)C(=O)N1CCC[C@H]1C(=O)NCc1cccc(Cl)c1

$$$$
3BIV_11U_H_999
     RDKit          3D

 21 22  0  0  0  0  0  0  0  0999 V2000
   18.3580  -14.0650   22.3830 C   0  0  0  0  0  0  0  0  0  0  0  0
   17.4200  -13.6580   23.0590 O   0  0  0  0  0  0  0  0  0  0  0  0
   19.1340  -15.2390   22.9680 C   0  0  0  0  0  0  0  0  0  0  0  0
   18.9960  -13.2180   21.5400 N   0  0  0  0  0  0  0  0  0  0  0  0
   18.5010  -11.8960   21.1470 C   0  0  0  0  0  0  0  0  0  0  0  0
   17.0940  -12.0320   20.5900 C   0  0  0  0  0  0  0  0  0  0  0  0
   16.8770  -12.9430   19.8050 O   0  0  0  0  0  0  0  0  0  0  0  0
   19.4420  -11.3560   20.0520 C   0  0  0  0  0  0  0  0  0  0  0  0
   20.2140  -12.6100   19.5700 C   0  0  0  0  0  0  0  0  0  0  0  0
   20.2830  -13.4530   20.8690 C   0  0  0  0  0  0  0  0  0  0  0  0
   16.3200  -10.9240   20.5610 N   0  0  0  0  0  0  0  0  0  0  0  0
   15.0280  -10.9630   19.8860 C   0  0  0  0  0  0  0  0  0  0  0  0
   13.9800  -10.8880   20.9650 C   0  0  0  0  0  0  0  0  0  0  0  0
   13.4980   -9.6680   21.3930 C   0  0  0  0  0  0  0  0  0  0  0  0
   12.5130   -9.6190   22.3600 C   0  0  0  0  0  0  0  0  0  0  0  0
   12.0100  -10.7990   22.8990 C   0  0  0  0  0  0  0  0  0  0  0  0
   10.9560  -10.7870   23.9380 C   0  0  0  0  0  0  0  0  0  0  0  0
   10.3140  -11.8540   24.3320 N   0  0  0  0  0  0  0  0  0  0  0  0
   10.5620   -9.5130   24.6090 N   0  0  0  0  0  0  0  0  0  0  0  0
   12.5060  -12.0280   22.4610 C   0  0  0  0  0  0  0  0  0  0  0  0
   13.4860  -12.0640   21.4960 C   0  0  0  0  0  0  0  0  0  0  0  0
  2  1  2  0
  3  1  1  0
  4  1  1  0
  5  4  1  0
 10  4  1  0
  6  5  1  0
  8  5  1  0
  7  6  2  0
 11  6  1  0
  9  8  1  0
 10  9  1  0
 12 11  1  0
 13 12  1  0
 14 13  2  0
 21 13  1  0
 15 14  1  0
 16 15  2  0
 17 16  1  0
 20 16  1  0
 18 17  2  0
 19 17  1  0
 21 20  2  0
A    1
C14
A    2
O32
A    3
C15
A    4
N1
A    5
C2
A    6
C7
A    7
O22
A    8
C3
A    9
C4
A   10
C5
A   11
N23
A   12
C24
A   13
C25
A   14
C26
A   15
C27
A   16
C28
A   17
C31
A   18
N49
A   19
N48
A   20
C29
A   21
C30
M  END
>  <Id>  (61) 
3BIV_11U_H_999

>  <ChainId>  (61) 
H

>  <AsymId>  (61) 
E

>  <SeqNum>  (61) 
999

>  <Name>  (61) 
(S)-N-(4-carbamimidoylbenzyl)-1-(2-(cyclohexylamino)ethanoyl)pyrrolidine-2-carboxamide

>  <SystematicName>  (61) 
(2S)-N-[(4-carbamimidoylphenyl)methyl]-1-[2-(cyclohexylamino)ethanoyl]pyrrolidine-2-carboxamide

>  <Synonyms>  (61) 
(2S)-1-[cyclohexylamino)acetyl-N-{4-[amino(imino)methyl]benzyl}pyrrolidine-2-carboxamide

>  <Type>  (61) 
peptide-like

>  <Formula>  (61) 
C21 H31 N5 O2

>  <ObservedFormula>  (61) 
C15 N4 O2

>  <MolecularWeight>  (61) 
385.503

>  <ModifiedDate>  (61) 
2012-01-05

>  <Parent>  (61) 


>  <OneLetterCode>  (61) 


>  <SubcomponentList>  (61) 
M30 PRO 00S

>  <AmbiguousFlag>  (61) 
N

>  <InsertionCode>  (61) 


>  <InstanceId>  (61) 
3BIV_11U_H_999

>  <ChemCompId>  (61) 
11U

>  <PdbId>  (61) 
3BIV

>  <ResidueNumber>  (61) 
999

>  <InChI>  (61) 
InChI=1S/C21H31N5O2/c22-20(23)16-10-8-15(9-11-16)13-25-21(28)18-7-4-12-26(18)19(27)14-24-17-5-2-1-3-6-17/h8-11,17-18,24H,1-7,12-14H2,(H3,22,23)(H,25,28)/t18-/m0/s1

>  <InChIKey>  (61) 
RYKFVFFOIYLADT-SFHVURJKSA-N

>  <SMILES>  (61) 
[H]/N=C(/c1ccc(cc1)CNC(=O)[C@@H]2CCCN2C(=O)CNC3CCCCC3)\N

>  <MissingHeavyAtoms>  (61) 
7

>  <Model>  (61) 
1

>  <AltIds>  (61) 


>  <pKI>  (61) 
4.25

>  <ChemblID>  (61) 
CHEMBL605289

>  <standardized_canonical_smiles>  (61) 
CC(=O)N1CCC[C@H]1C(=O)NCc1ccc(C(=N)N)cc1

$$$$
2ZI2_24U_H_801
     RDKit          3D

 23 24  0  0  0  0  0  0  0  0999 V2000
   18.8550  -14.3330   25.2430 C   0  0  0  0  0  0  0  0  0  0  0  0
   17.6290  -15.1390   24.7300 C   0  0  0  0  0  0  0  0  0  0  0  0
   17.6220  -15.1620   23.1700 C   0  0  0  0  0  0  0  0  0  0  0  0
   17.5710  -13.7290   22.6540 C   0  0  0  0  0  0  0  0  0  0  0  0
   16.5880  -13.0890   23.0250 O   0  0  0  0  0  0  0  0  0  0  0  0
   18.5500  -13.2430   21.8500 N   0  0  0  0  0  0  0  0  0  0  0  0
   18.3870  -11.9570   21.1740 C   0  0  0  0  0  0  0  0  0  0  0  0
   17.0310  -11.9970   20.5010 C   0  0  0  0  0  0  0  0  0  0  0  0
   16.6600  -13.0480   19.9910 O   0  0  0  0  0  0  0  0  0  0  0  0
   19.5020  -12.0240   20.0870 C   0  0  0  0  0  0  0  0  0  0  0  0
   20.5190  -13.0100   20.7200 C   0  0  0  0  0  0  0  0  0  0  0  0
   19.5840  -14.1140   21.2690 C   0  0  0  0  0  0  0  0  0  0  0  0
   16.2850  -10.8670   20.5190 N   0  0  0  0  0  0  0  0  0  0  0  0
   14.9820  -10.9860   19.8310 C   0  0  0  0  0  0  0  0  0  0  0  0
   13.8940  -10.9370   20.9120 C   0  0  0  0  0  0  0  0  0  0  0  0
   13.4030  -12.1380   21.4480 C   0  0  0  0  0  0  0  0  0  0  0  0
   12.4200  -12.0950   22.4250 C   0  0  0  0  0  0  0  0  0  0  0  0
   11.9230  -10.8720   22.8710 C   0  0  0  0  0  0  0  0  0  0  0  0
   10.7820  -10.8610   24.0070 C   0  0  0  0  0  0  0  0  0  0  0  0
   10.1670  -11.9790   24.2530 N   0  0  0  0  0  0  0  0  0  0  0  0
   10.5190   -9.7450   24.6320 N   0  0  0  0  0  0  0  0  0  0  0  0
   12.4040   -9.6810   22.3460 C   0  0  0  0  0  0  0  0  0  0  0  0
   13.3910   -9.7180   21.3650 C   0  0  0  0  0  0  0  0  0  0  0  0
  2  1  1  0
  3  2  1  0
  4  3  1  0
  5  4  2  0
  6  4  1  0
  7  6  1  0
 12  6  1  0
  8  7  1  0
 10  7  1  0
  9  8  2  0
 13  8  1  0
 11 10  1  0
 12 11  1  0
 14 13  1  0
 15 14  1  0
 16 15  2  0
 23 15  1  0
 17 16  1  0
 18 17  2  0
 19 18  1  0
 22 18  1  0
 20 19  2  0
 21 19  1  0
 23 22  2  0
A    1
C17
A    2
C33
A    3
C15
A    4
C14
A    5
O32
A    6
N1
A    7
C1
A    8
C7
A    9
O22
A   10
C2
A   11
C3
A   12
C4
A   13
N23
A   14
C24
A   15
C25
A   16
C26
A   17
C27
A   18
C28
A   19
C21
A   20
N47
A   21
N46
A   22
C29
A   23
C30
M  END
>  <Id>  (62) 
2ZI2_24U_H_801

>  <ChainId>  (62) 
H

>  <AsymId>  (62) 
F

>  <SeqNum>  (62) 
801

>  <Name>  (62) 
1-butanoyl-N-(4-carbamimidoylbenzyl)-L-prolinamide

>  <SystematicName>  (62) 
(2S)-1-butanoyl-N-[(4-carbamimidoylphenyl)methyl]pyrrolidine-2-carboxamide

>  <Synonyms>  (62) 


>  <Type>  (62) 
NON-POLYMER

>  <Formula>  (62) 
C17 H24 N4 O2

>  <ObservedFormula>  (62) 
C17 N4 O2

>  <MolecularWeight>  (62) 
316.398

>  <ModifiedDate>  (62) 
2012-01-05

>  <Parent>  (62) 


>  <OneLetterCode>  (62) 


>  <SubcomponentList>  (62) 
BUA PRO 00S

>  <AmbiguousFlag>  (62) 
N

>  <InsertionCode>  (62) 


>  <InstanceId>  (62) 
2ZI2_24U_H_801

>  <ChemCompId>  (62) 
24U

>  <PdbId>  (62) 
2ZI2

>  <ResidueNumber>  (62) 
801

>  <InChI>  (62) 
InChI=1S/C17H24N4O2/c1-2-4-15(22)21-10-3-5-14(21)17(23)20-11-12-6-8-13(9-7-12)16(18)19/h6-9,14H,2-5,10-11H2,1H3,(H3,18,19)(H,20,23)/t14-/m0/s1

>  <InChIKey>  (62) 
RYAZZWWVNUWKNB-AWEZNQCLSA-N

>  <SMILES>  (62) 
[H]/N=C(/c1ccc(cc1)CNC(=O)[C@@H]2CCCN2C(=O)CCC)\N

>  <MissingHeavyAtoms>  (62) 
0

>  <Model>  (62) 
1

>  <AltIds>  (62) 


>  <pKI>  (62) 
5.27

>  <ChemblID>  (62) 
CHEMBL598213

>  <standardized_canonical_smiles>  (62) 
CCCC(=O)N1CCC[C@H]1C(=O)NCc1ccc(C(=N)N)cc1

$$$$
2ZHF_49U_H_501
     RDKit          3D

 22 23  0  0  0  0  0  0  0  0999 V2000
   17.5430  -15.0570   24.6230 C   0  0  0  0  0  0  0  0  0  0  0  0
   17.5870  -15.0460   23.0760 C   0  0  0  0  0  0  0  0  0  0  0  0
   17.5990  -13.5670   22.4860 C   0  0  0  0  0  0  0  0  0  0  0  0
   16.6090  -12.8480   22.7420 O   0  0  0  0  0  0  0  0  0  0  0  0
   18.6330  -13.1380   21.7460 N   0  0  0  0  0  0  0  0  0  0  0  0
   18.3840  -11.8580   21.0420 C   0  0  0  0  0  0  0  0  0  0  0  0
   17.1260  -11.8270   20.1950 C   0  0  0  0  0  0  0  0  0  0  0  0
   16.7490  -12.7440   19.4550 O   0  0  0  0  0  0  0  0  0  0  0  0
   19.5780  -11.6040   20.1340 C   0  0  0  0  0  0  0  0  0  0  0  0
   20.0900  -13.0060   19.8840 C   0  0  0  0  0  0  0  0  0  0  0  0
   19.7250  -13.8560   21.0980 C   0  0  0  0  0  0  0  0  0  0  0  0
   16.3470  -10.7490   20.2670 N   0  0  0  0  0  0  0  0  0  0  0  0
   14.9840  -10.8490   19.8210 C   0  0  0  0  0  0  0  0  0  0  0  0
   13.9690  -10.8050   20.8680 C   0  0  0  0  0  0  0  0  0  0  0  0
   13.6030   -9.6030   21.3640 C   0  0  0  0  0  0  0  0  0  0  0  0
   12.6480   -9.5160   22.3550 C   0  0  0  0  0  0  0  0  0  0  0  0
   12.0500  -10.6410   22.8580 C   0  0  0  0  0  0  0  0  0  0  0  0
   11.0050  -10.5850   23.9370 C   0  0  0  0  0  0  0  0  0  0  0  0
   10.3020  -11.6740   24.2130 N   0  0  0  0  0  0  0  0  0  0  0  0
   10.7710   -9.4770   24.6180 N   0  0  0  0  0  0  0  0  0  0  0  0
   12.4290  -11.8650   22.3470 C   0  0  0  0  0  0  0  0  0  0  0  0
   13.3880  -11.9670   21.3500 C   0  0  0  0  0  0  0  0  0  0  0  0
  2  1  1  0
  3  2  1  0
  4  3  2  0
  5  3  1  0
  6  5  1  0
 11  5  1  0
  7  6  1  0
  9  6  1  0
  8  7  2  0
 12  7  1  0
 10  9  1  0
 11 10  1  0
 13 12  1  0
 14 13  1  0
 15 14  2  0
 22 14  1  0
 16 15  1  0
 17 16  2  0
 18 17  1  0
 21 17  1  0
 19 18  2  0
 20 18  1  0
 22 21  2  0
A    1
C21
A    2
C5
A    3
C14
A    4
O32
A    5
N1
A    6
C1
A    7
C7
A    8
O22
A    9
C2
A   10
C3
A   11
C4
A   12
N23
A   13
C24
A   14
C25
A   15
C30
A   16
C29
A   17
C28
A   18
C9
A   19
N46
A   20
N47
A   21
C27
A   22
C26
M  END
>  <Id>  (63) 
2ZHF_49U_H_501

>  <ChainId>  (63) 
H

>  <AsymId>  (63) 
F

>  <SeqNum>  (63) 
501

>  <Name>  (63) 
(S)-N-(4-carbamimidoylbenzyl)-1-(3-cyclopentylpropanoyl)pyrrolidine-2-carboxamide

>  <SystematicName>  (63) 
(2S)-N-[(4-carbamimidoylphenyl)methyl]-1-(3-cyclopentylpropanoyl)pyrrolidine-2-carboxamide

>  <Synonyms>  (63) 


>  <Type>  (63) 
NON-POLYMER

>  <Formula>  (63) 
C21 H30 N4 O2

>  <ObservedFormula>  (63) 
C16 N4 O2

>  <MolecularWeight>  (63) 
370.489

>  <ModifiedDate>  (63) 
2012-01-05

>  <Parent>  (63) 


>  <OneLetterCode>  (63) 


>  <SubcomponentList>  (63) 
3PA PRO 00S

>  <AmbiguousFlag>  (63) 
N

>  <InsertionCode>  (63) 


>  <InstanceId>  (63) 
2ZHF_49U_H_501

>  <ChemCompId>  (63) 
49U

>  <PdbId>  (63) 
2ZHF

>  <ResidueNumber>  (63) 
501

>  <InChI>  (63) 
InChI=1S/C21H30N4O2/c22-20(23)17-10-7-16(8-11-17)14-24-21(27)18-6-3-13-25(18)19(26)12-9-15-4-1-2-5-15/h7-8,10-11,15,18H,1-6,9,12-14H2,(H3,22,23)(H,24,27)/t18-/m0/s1

>  <InChIKey>  (63) 
BNCHHUFGEOJCNH-SFHVURJKSA-N

>  <SMILES>  (63) 
[H]/N=C(\c1ccc(cc1)CNC(=O)[C@@H]2CCCN2C(=O)CCC3CCCC3)/N

>  <MissingHeavyAtoms>  (63) 
5

>  <Model>  (63) 
1

>  <AltIds>  (63) 


>  <pKI>  (63) 
5.93

>  <ChemblID>  (63) 
CHEMBL609619

>  <standardized_canonical_smiles>  (63) 
N=C(N)c1ccc(CNC(=O)[C@@H]2CCCN2C(=O)CCC2CCCC2)cc1

$$$$
2ZG0_50U_H_701
     RDKit          3D

 28 30  0  0  0  0  0  0  0  0999 V2000
   19.5820  -14.0820   24.7640 C   0  0  0  0  0  0  0  0  0  0  0  0
   19.7590  -13.3400   26.1100 C   0  0  0  0  0  0  0  0  0  0  0  0
   21.0950  -12.5520   26.2090 C   0  0  0  0  0  0  0  0  0  0  0  0
   22.3280  -13.4720   25.9350 C   0  0  0  0  0  0  0  0  0  0  0  0
   22.1900  -14.1090   24.5340 C   0  0  0  0  0  0  0  0  0  0  0  0
   20.8610  -14.9260   24.4490 C   0  0  0  0  0  0  0  0  0  0  0  0
   18.2950  -14.9890   24.7950 C   0  0  0  0  0  0  0  0  0  0  0  0
   17.7760  -15.2490   23.3540 C   0  0  0  0  0  0  0  0  0  0  0  0
   17.6720  -13.9260   22.6120 C   0  0  0  0  0  0  0  0  0  0  0  0
   16.7470  -13.2080   22.9960 O   0  0  0  0  0  0  0  0  0  0  0  0
   18.4320  -13.5280   21.6560 N   0  0  0  0  0  0  0  0  0  0  0  0
   18.2180  -12.1940   21.1240 C   0  0  0  0  0  0  0  0  0  0  0  0
   16.8770  -12.1050   20.4290 C   0  0  0  0  0  0  0  0  0  0  0  0
   16.5130  -13.1160   19.8480 O   0  0  0  0  0  0  0  0  0  0  0  0
   19.3680  -12.2180   20.0800 C   0  0  0  0  0  0  0  0  0  0  0  0
   20.3980  -13.2090   20.6800 C   0  0  0  0  0  0  0  0  0  0  0  0
   19.5500  -14.3690   21.2650 C   0  0  0  0  0  0  0  0  0  0  0  0
   16.2500  -10.9950   20.4890 N   0  0  0  0  0  0  0  0  0  0  0  0
   14.9440  -10.9590   19.8450 C   0  0  0  0  0  0  0  0  0  0  0  0
   13.8630  -10.8900   20.9450 C   0  0  0  0  0  0  0  0  0  0  0  0
   13.3760  -12.0620   21.5210 C   0  0  0  0  0  0  0  0  0  0  0  0
   12.4010  -12.0520   22.5160 C   0  0  0  0  0  0  0  0  0  0  0  0
   11.8640  -10.8400   22.9850 C   0  0  0  0  0  0  0  0  0  0  0  0
   10.8070  -10.8110   24.0630 C   0  0  0  0  0  0  0  0  0  0  0  0
   10.5020   -9.6980   24.6080 N   0  0  0  0  0  0  0  0  0  0  0  0
   10.2210  -11.8890   24.4300 N   0  0  0  0  0  0  0  0  0  0  0  0
   12.3490   -9.6620   22.4110 C   0  0  0  0  0  0  0  0  0  0  0  0
   13.3320   -9.6890   21.4080 C   0  0  0  0  0  0  0  0  0  0  0  0
  2  1  1  0
  6  1  1  0
  7  1  1  0
  3  2  1  0
  4  3  1  0
  5  4  1  0
  6  5  1  0
  8  7  1  0
  9  8  1  0
 10  9  2  0
 11  9  1  0
 12 11  1  0
 17 11  1  0
 13 12  1  0
 15 12  1  0
 14 13  2  0
 18 13  1  0
 16 15  1  0
 17 16  1  0
 19 18  1  0
 20 19  1  0
 21 20  2  0
 28 20  1  0
 22 21  1  0
 23 22  2  0
 24 23  1  0
 27 23  1  0
 25 24  2  0
 26 24  1  0
 28 27  2  0
A    1
C44
A    2
C45
A    3
C46
A    4
C47
A    5
C48
A    6
C49
A    7
C43
A    8
C5
A    9
C14
A   10
O32
A   11
N1
A   12
C1
A   13
C7
A   14
O22
A   15
C2
A   16
C3
A   17
C4
A   18
N23
A   19
C24
A   20
C25
A   21
C26
A   22
C27
A   23
C28
A   24
C21
A   25
N46
A   26
N47
A   27
C29
A   28
C30
M  END
>  <Id>  (64) 
2ZG0_50U_H_701

>  <ChainId>  (64) 
H

>  <AsymId>  (64) 
F

>  <SeqNum>  (64) 
701

>  <Name>  (64) 
(S)-N-(4-carbamimidoylbenzyl)-1-(3-cyclohexylpropanoyl)pyrrolidine-2-carboxamide

>  <SystematicName>  (64) 
(2S)-N-[(4-carbamimidoylphenyl)methyl]-1-(3-cyclohexylpropanoyl)pyrrolidine-2-carboxamide

>  <Synonyms>  (64) 


>  <Type>  (64) 
peptide-like

>  <Formula>  (64) 
C22 H32 N4 O2

>  <ObservedFormula>  (64) 
C22 N4 O2

>  <MolecularWeight>  (64) 
384.515

>  <ModifiedDate>  (64) 
2012-01-05

>  <Parent>  (64) 


>  <OneLetterCode>  (64) 


>  <SubcomponentList>  (64) 
CXP PRO 00S

>  <AmbiguousFlag>  (64) 
N

>  <InsertionCode>  (64) 


>  <InstanceId>  (64) 
2ZG0_50U_H_701

>  <ChemCompId>  (64) 
50U

>  <PdbId>  (64) 
2ZG0

>  <ResidueNumber>  (64) 
701

>  <InChI>  (64) 
InChI=1S/C22H32N4O2/c23-21(24)18-11-8-17(9-12-18)15-25-22(28)19-7-4-14-26(19)20(27)13-10-16-5-2-1-3-6-16/h8-9,11-12,16,19H,1-7,10,13-15H2,(H3,23,24)(H,25,28)/t19-/m0/s1

>  <InChIKey>  (64) 
DOTBZTLJSXFKCP-IBGZPJMESA-N

>  <SMILES>  (64) 
[H]/N=C(/c1ccc(cc1)CNC(=O)[C@@H]2CCCN2C(=O)CCC3CCCCC3)\N

>  <MissingHeavyAtoms>  (64) 
0

>  <Model>  (64) 
1

>  <AltIds>  (64) 


>  <pKI>  (64) 
5.93

>  <ChemblID>  (64) 
CHEMBL596999

>  <standardized_canonical_smiles>  (64) 
N=C(N)c1ccc(CNC(=O)[C@@H]2CCCN2C(=O)CCC2CCCCC2)cc1

$$$$
2ZGX_29U_H_1601
     RDKit          3D

 24 25  0  0  0  0  0  0  0  0999 V2000
   16.0930  -15.7440   23.0790 N   0  0  0  0  0  0  0  0  0  0  0  0
   17.4220  -15.1030   23.1790 C   0  0  0  0  0  0  0  0  0  0  0  0
   17.4360  -13.7490   22.4880 C   0  0  0  0  0  0  0  0  0  0  0  0
   16.4680  -13.0330   22.7690 O   0  0  0  0  0  0  0  0  0  0  0  0
   17.6350  -14.8790   24.7110 C   0  0  0  0  0  0  0  0  0  0  0  0
   18.9730  -14.4490   25.3430 C   0  0  0  0  0  0  0  0  0  0  0  0
   18.4130  -13.3300   21.6440 N   0  0  0  0  0  0  0  0  0  0  0  0
   18.3270  -12.0220   21.0170 C   0  0  0  0  0  0  0  0  0  0  0  0
   17.0180  -11.9110   20.2720 C   0  0  0  0  0  0  0  0  0  0  0  0
   16.6340  -12.8750   19.6440 O   0  0  0  0  0  0  0  0  0  0  0  0
   19.4930  -12.0770   19.9820 C   0  0  0  0  0  0  0  0  0  0  0  0
   20.4710  -13.0420   20.6980 C   0  0  0  0  0  0  0  0  0  0  0  0
   19.5280  -14.1680   21.1920 C   0  0  0  0  0  0  0  0  0  0  0  0
   16.3710  -10.7240   20.3370 N   0  0  0  0  0  0  0  0  0  0  0  0
   15.0790  -10.6370   19.6650 C   0  0  0  0  0  0  0  0  0  0  0  0
   13.9920  -10.6390   20.7580 C   0  0  0  0  0  0  0  0  0  0  0  0
   13.5860  -11.8300   21.3540 C   0  0  0  0  0  0  0  0  0  0  0  0
   12.6060  -11.8450   22.3400 C   0  0  0  0  0  0  0  0  0  0  0  0
   12.0120  -10.6500   22.7480 C   0  0  0  0  0  0  0  0  0  0  0  0
   10.8810  -10.6450   23.8790 C   0  0  0  0  0  0  0  0  0  0  0  0
   10.2060  -11.7630   24.0990 N   0  0  0  0  0  0  0  0  0  0  0  0
   10.6480   -9.5500   24.5560 N   0  0  0  0  0  0  0  0  0  0  0  0
   12.4210   -9.4500   22.1480 C   0  0  0  0  0  0  0  0  0  0  0  0
   13.4040   -9.4430   21.1600 C   0  0  0  0  0  0  0  0  0  0  0  0
  2  1  1  0
  3  2  1  0
  5  2  1  0
  4  3  2  0
  7  3  1  0
  6  5  1  0
  8  7  1  0
 13  7  1  0
  9  8  1  0
 11  8  1  0
 10  9  2  0
 14  9  1  0
 12 11  1  0
 13 12  1  0
 15 14  1  0
 16 15  1  0
 17 16  2  0
 24 16  1  0
 18 17  1  0
 19 18  2  0
 20 19  1  0
 23 19  1  0
 21 20  2  0
 22 20  1  0
 24 23  2  0
A    1
N13
A    2
C5
A    3
C14
A    4
O32
A    5
C33
A    6
C48
A    7
N1
A    8
C1
A    9
C7
A   10
O22
A   11
C2
A   12
C3
A   13
C4
A   14
N23
A   15
C24
A   16
C25
A   17
C30
A   18
C29
A   19
C28
A   20
C21
A   21
N46
A   22
N47
A   23
C27
A   24
C26
M  END
>  <Id>  (65) 
2ZGX_29U_H_1601

>  <ChainId>  (65) 
H

>  <AsymId>  (65) 
F

>  <SeqNum>  (65) 
1601

>  <Name>  (65) 
1-[(2R)-2-aminobutanoyl]-N-(4-carbamimidoylbenzyl)-L-prolinamide

>  <SystematicName>  (65) 
(2S)-1-[(2R)-2-aminobutanoyl]-N-[(4-carbamimidoylphenyl)methyl]pyrrolidine-2-carboxamide

>  <Synonyms>  (65) 


>  <Type>  (65) 
NON-POLYMER

>  <Formula>  (65) 
C17 H25 N5 O2

>  <ObservedFormula>  (65) 
C17 N5 O2

>  <MolecularWeight>  (65) 
331.413

>  <ModifiedDate>  (65) 
2012-01-05

>  <Parent>  (65) 


>  <OneLetterCode>  (65) 


>  <SubcomponentList>  (65) 
ABA PRO 00S

>  <AmbiguousFlag>  (65) 
N

>  <InsertionCode>  (65) 


>  <InstanceId>  (65) 
2ZGX_29U_H_1601

>  <ChemCompId>  (65) 
29U

>  <PdbId>  (65) 
2ZGX

>  <ResidueNumber>  (65) 
1601

>  <InChI>  (65) 
InChI=1S/C17H25N5O2/c1-2-13(18)17(24)22-9-3-4-14(22)16(23)21-10-11-5-7-12(8-6-11)15(19)20/h5-8,13-14H,2-4,9-10,18H2,1H3,(H3,19,20)(H,21,23)/t13-,14+/m1/s1

>  <InChIKey>  (65) 
YHAMQFKGUUSJMU-KGLIPLIRSA-N

>  <SMILES>  (65) 
[H]/N=C(/c1ccc(cc1)CNC(=O)[C@@H]2CCCN2C(=O)[C@@H](CC)N)\N

>  <MissingHeavyAtoms>  (65) 
0

>  <Model>  (65) 
1

>  <AltIds>  (65) 


>  <pKI>  (65) 
6.78

>  <ChemblID>  (65) 
CHEMBL597202

>  <standardized_canonical_smiles>  (65) 
CC[C@@H](N)C(=O)N1CCC[C@H]1C(=O)NCc1ccc(C(=N)N)cc1

$$$$
3LDX_NLI_H_1
     RDKit          3D

 30 31  0  0  0  0  0  0  0  0999 V2000
   20.1720  -13.2440   20.0340 C   0  0  0  0  0  0  0  0  0  0  0  0
   19.2340  -14.0380   20.9210 C   0  0  0  0  0  0  0  0  0  0  0  0
   19.6330  -15.2500   21.4450 C   0  0  0  0  0  0  0  0  0  0  0  0
   18.9950  -15.9350   22.4650 N   0  0  0  0  0  0  0  0  0  0  0  0
   17.7990  -15.5380   22.8160 C   0  0  0  0  0  0  0  0  0  0  0  0
   17.0660  -16.1520   23.9050 N   0  0  0  0  0  0  0  0  0  0  0  0
   17.6300  -17.3870   24.4750 C   0  0  0  0  0  0  0  0  0  0  0  0
   18.3480  -17.0880   25.8870 C   0  0  0  0  0  0  0  0  0  0  0  0
   17.4900  -16.4580   26.7160 F   0  0  0  0  0  0  0  0  0  0  0  0
   18.6130  -18.2360   26.4950 F   0  0  0  0  0  0  0  0  0  0  0  0
   19.6110  -16.2030   25.7770 C   0  0  0  0  0  0  0  0  0  0  0  0
   20.7870  -16.7180   25.2380 C   0  0  0  0  0  0  0  0  0  0  0  0
   21.9410  -15.9300   25.1270 C   0  0  0  0  0  0  0  0  0  0  0  0
   21.9240  -14.5980   25.5400 C   0  0  0  0  0  0  0  0  0  0  0  0
   20.7450  -14.0890   26.0810 C   0  0  0  0  0  0  0  0  0  0  0  0
   19.6010  -14.8790   26.2000 C   0  0  0  0  0  0  0  0  0  0  0  0
   17.2980  -14.1870   22.4340 C   0  0  0  0  0  0  0  0  0  0  0  0
   16.2390  -13.7290   22.8400 O   0  0  0  0  0  0  0  0  0  0  0  0
   18.0590  -13.4750   21.4400 N   0  0  0  0  0  0  0  0  0  0  0  0
   17.5090  -12.1670   21.0270 C   0  0  0  0  0  0  0  0  0  0  0  0
   16.0760  -12.4030   20.4900 C   0  0  0  0  0  0  0  0  0  0  0  0
   15.7440  -13.5630   20.2640 O   0  0  0  0  0  0  0  0  0  0  0  0
   15.1310  -11.4690   20.9000 N   0  0  0  0  0  0  0  0  0  0  0  0
   13.7860  -11.3730   20.2690 C   0  0  0  0  0  0  0  0  0  0  0  0
   12.8760  -10.5630   21.2480 C   0  0  0  0  0  0  0  0  0  0  0  0
   12.8160  -11.5330   22.3070 O   0  0  0  0  0  0  0  0  0  0  0  0
   12.5150  -10.9460   23.4800 N   0  0  0  0  0  0  0  0  0  0  0  0
   11.2540  -11.5260   24.0250 C   0  0  0  0  0  0  0  0  0  0  0  0
   10.9960  -12.7850   24.0590 N   0  0  0  0  0  0  0  0  0  0  0  0
   10.4120  -10.6040   24.7370 N   0  0  0  0  0  0  0  0  0  0  0  0
  2  1  1  0
  3  2  2  0
 19  2  1  0
  4  3  1  0
  5  4  2  0
  6  5  1  0
 17  5  1  0
  7  6  1  0
  8  7  1  0
  9  8  1  0
 10  8  1  0
 11  8  1  0
 12 11  2  0
 16 11  1  0
 13 12  1  0
 14 13  2  0
 15 14  1  0
 16 15  2  0
 18 17  2  0
 19 17  1  0
 20 19  1  0
 21 20  1  0
 22 21  2  0
 23 21  1  0
 24 23  1  0
 25 24  1  0
 26 25  1  0
 27 26  1  0
 28 27  1  0
 29 28  2  0
 30 28  1  0
A    1
C01
A    2
C02
A    3
C03
A    4
N04
A    5
C05
A    6
N06
A    7
C07
A    8
C08
A    9
F09
A   10
F10
A   11
C11
A   12
C12
A   13
C13
A   14
C14
A   15
C15
A   16
C16
A   17
C17
A   18
O18
A   19
N19
A   20
C20
A   21
C21
A   22
O22
A   23
N23
A   24
C24
A   25
C25
A   26
O26
A   27
N27
A   28
C28
A   29
N29
A   30
N30
M  END
>  <Id>  (66) 
3LDX_NLI_H_1

>  <ChainId>  (66) 
H

>  <AsymId>  (66) 
D

>  <SeqNum>  (66) 
1

>  <Name>  (66) 
N-[2-(carbamimidamidooxy)ethyl]-2-{3-[(2,2-difluoro-2-phenylethyl)amino]-6-methyl-2-oxopyrazin-1(2H)-yl}acetamide

>  <SystematicName>  (66) 
2-[3-[[2,2-bis(fluoranyl)-2-phenyl-ethyl]amino]-6-methyl-2-oxidanylidene-pyrazin-1-yl]-N-(2-carbamimidamidooxyethyl)ethanamide

>  <Synonyms>  (66) 
RWJ-671818

>  <Type>  (66) 
NON-POLYMER

>  <Formula>  (66) 
C18 H23 F2 N7 O3

>  <ObservedFormula>  (66) 
C18 F2 N7 O3

>  <MolecularWeight>  (66) 
423.417

>  <ModifiedDate>  (66) 
2011-08-05

>  <Parent>  (66) 


>  <OneLetterCode>  (66) 


>  <SubcomponentList>  (66) 


>  <AmbiguousFlag>  (66) 
N

>  <InsertionCode>  (66) 


>  <InstanceId>  (66) 
3LDX_NLI_H_1

>  <ChemCompId>  (66) 
NLI

>  <PdbId>  (66) 
3LDX

>  <ResidueNumber>  (66) 
1

>  <InChI>  (66) 
InChI=1S/C18H23F2N7O3/c1-12-9-24-15(25-11-18(19,20)13-5-3-2-4-6-13)16(29)27(12)10-14(28)23-7-8-30-26-17(21)22/h2-6,9H,7-8,10-11H2,1H3,(H,23,28)(H,24,25)(H4,21,22,26)

>  <InChIKey>  (66) 
IDCKXHIGLKQWMM-UHFFFAOYSA-N

>  <SMILES>  (66) 
[H]/N=C(\N)/NOCCNC(=O)CN1C(=CN=C(C1=O)NCC(c2ccccc2)(F)F)C

>  <MissingHeavyAtoms>  (66) 
0

>  <Model>  (66) 
1

>  <AltIds>  (66) 


>  <pKI>  (66) 
8.89

>  <ChemblID>  (66) 
CHEMBL1083499

>  <standardized_canonical_smiles>  (66) 
Cc1cnc(NCC(F)(F)c2ccccc2)c(=O)n1CC(=O)NCCON=C(N)N

$$$$
3U98_BJA_H_1
     RDKit          3D

 39 41  0  0  0  0  0  0  0  0999 V2000
   14.5810  -15.8200   21.2600 C   0  0  0  0  0  0  0  0  0  0  0  0
   15.3250  -17.0790   22.0950 S   0  0  0  0  0  0  0  0  0  0  0  0
   13.6010  -16.2930   20.1980 C   0  0  0  0  0  0  0  0  0  0  0  0
   12.2360  -16.3080   20.4690 C   0  0  0  0  0  0  0  0  0  0  0  0
   11.3310  -16.7410   19.5020 C   0  0  0  0  0  0  0  0  0  0  0  0
   11.7910  -17.1490   18.2560 C   0  0  0  0  0  0  0  0  0  0  0  0
   13.1520  -17.1270   17.9780 C   0  0  0  0  0  0  0  0  0  0  0  0
   14.0560  -16.6960   18.9480 C   0  0  0  0  0  0  0  0  0  0  0  0
   14.2740  -17.8360   22.7050 O   0  0  0  0  0  0  0  0  0  0  0  0
   16.1860  -17.8580   21.2430 O   0  0  0  0  0  0  0  0  0  0  0  0
   16.1740  -16.4390   23.3210 N   0  0  0  0  0  0  0  0  0  0  0  0
   17.4860  -15.8360   23.1590 C   0  0  0  0  0  0  0  0  0  0  0  0
   18.1370  -15.6090   24.5250 C   0  0  0  0  0  0  0  0  0  0  0  0
   17.9760  -16.7620   25.5130 C   0  0  0  0  0  0  0  0  0  0  0  0
   18.7660  -16.4390   26.7880 C   0  0  0  0  0  0  0  0  0  0  0  0
   18.5070  -17.5220   27.7250 N   0  0  0  0  0  0  0  0  0  0  0  0
   19.2440  -18.6200   27.8860 C   0  0  0  0  0  0  0  0  0  0  0  0
   18.8960  -19.5280   28.7920 N   0  0  0  0  0  0  0  0  0  0  0  0
   20.2620  -18.8040   27.1630 N   0  0  0  0  0  0  0  0  0  0  0  0
   17.3770  -14.4950   22.4830 C   0  0  0  0  0  0  0  0  0  0  0  0
   16.4050  -13.7770   22.7230 O   0  0  0  0  0  0  0  0  0  0  0  0
   18.3410  -14.1080   21.6460 N   0  0  0  0  0  0  0  0  0  0  0  0
   18.2460  -12.8130   20.9670 C   0  0  0  0  0  0  0  0  0  0  0  0
   16.9560  -12.7380   20.2090 C   0  0  0  0  0  0  0  0  0  0  0  0
   16.5520  -13.6880   19.5630 O   0  0  0  0  0  0  0  0  0  0  0  0
   19.4060  -12.7810   19.9820 C   0  0  0  0  0  0  0  0  0  0  0  0
   20.3780  -13.8360   20.4850 C   0  0  0  0  0  0  0  0  0  0  0  0
   19.5540  -14.8460   21.2690 C   0  0  0  0  0  0  0  0  0  0  0  0
   16.2590  -11.6040   20.3070 N   0  0  0  0  0  0  0  0  0  0  0  0
   14.9760  -11.3600   19.6530 C   0  0  0  0  0  0  0  0  0  0  0  0
   13.9070  -11.3460   20.7180 C   0  0  0  0  0  0  0  0  0  0  0  0
   13.6490  -10.1990   21.4550 C   0  0  0  0  0  0  0  0  0  0  0  0
   12.6720  -10.2100   22.4420 C   0  0  0  0  0  0  0  0  0  0  0  0
   11.9480  -11.3580   22.7130 C   0  0  0  0  0  0  0  0  0  0  0  0
   10.9000  -11.3480   23.7830 C   0  0  0  0  0  0  0  0  0  0  0  0
   10.6520  -10.2850   24.4070 N   0  0  0  0  0  0  0  0  0  0  0  0
   10.2370  -12.4650   24.0970 N   0  0  0  0  0  0  0  0  0  0  0  0
   12.2090  -12.5100   21.9850 C   0  0  0  0  0  0  0  0  0  0  0  0
   13.1880  -12.4950   21.0000 C   0  0  0  0  0  0  0  0  0  0  0  0
  2  1  1  0
  3  1  1  0
  9  2  2  0
 10  2  2  0
 11  2  1  0
  4  3  2  0
  8  3  1  0
  5  4  1  0
  6  5  2  0
  7  6  1  0
  8  7  2  0
 12 11  1  0
 13 12  1  0
 20 12  1  0
 14 13  1  0
 15 14  1  0
 16 15  1  0
 17 16  1  0
 18 17  1  0
 19 17  2  0
 21 20  2  0
 22 20  1  0
 23 22  1  0
 28 22  1  0
 24 23  1  0
 26 23  1  0
 25 24  2  0
 29 24  1  0
 27 26  1  0
 28 27  1  0
 30 29  1  0
 31 30  1  0
 32 31  2  0
 39 31  1  0
 33 32  1  0
 34 33  2  0
 35 34  1  0
 38 34  1  0
 36 35  2  0
 37 35  1  0
 39 38  2  0
A    1
C7
A    2
S8
A    3
C4
A    4
C5
A    5
C6
A    6
C1
A    7
C2
A    8
C3
A    9
O28
A   10
O29
A   11
N9
A   12
C10
A   13
C30
A   14
C31
A   15
C32
A   16
N33
A   17
C34
A   18
N36
A   19
N35
A   20
C11
A   21
O27
A   22
N12
A   23
C13
A   24
C17
A   25
O26
A   26
C14
A   27
C15
A   28
C16
A   29
N18
A   30
C19
A   31
C20
A   32
C25
A   33
C24
A   34
C23
A   35
C37
A   36
N38
A   37
N39
A   38
C22
A   39
C21
M  END
>  <Id>  (67) 
3U98_BJA_H_1

>  <ChainId>  (67) 
H

>  <AsymId>  (67) 
E

>  <SeqNum>  (67) 
1

>  <Name>  (67) 
(2S)-1-[(2R)-2-(benzylsulfonylamino)-5-guanidino-pentanoyl]-N-[(4-carbamimidoylphenyl)methyl]pyrrolidine-2-carboxamide

>  <SystematicName>  (67) 
(2S)-1-[(2R)-5-carbamimidamido-2-[(phenylmethyl)sulfonylamino]pentanoyl]-N-[(4-carbamimidoylphenyl)methyl]pyrrolidine-2-carboxamide

>  <Synonyms>  (67) 


>  <Type>  (67) 
NON-POLYMER

>  <Formula>  (67) 
C26 H36 N8 O4 S

>  <ObservedFormula>  (67) 
C26 S N8 O4

>  <MolecularWeight>  (67) 
556.68

>  <ModifiedDate>  (67) 
2012-10-19

>  <Parent>  (67) 


>  <OneLetterCode>  (67) 


>  <SubcomponentList>  (67) 
PMS DAR PRO 00S

>  <AmbiguousFlag>  (67) 
N

>  <InsertionCode>  (67) 


>  <InstanceId>  (67) 
3U98_BJA_H_1

>  <ChemCompId>  (67) 
BJA

>  <PdbId>  (67) 
3U98

>  <ResidueNumber>  (67) 
1

>  <InChI>  (67) 
InChI=1S/C26H36N8O4S/c27-23(28)20-12-10-18(11-13-20)16-32-24(35)22-9-5-15-34(22)25(36)21(8-4-14-31-26(29)30)33-39(37,38)17-19-6-2-1-3-7-19/h1-3,6-7,10-13,21-22,33H,4-5,8-9,14-17H2,(H3,27,28)(H,32,35)(H4,29,30,31)/t21-,22+/m1/s1

>  <InChIKey>  (67) 
QKFCYPKTTJCUSZ-YADHBBJMSA-N

>  <SMILES>  (67) 
[H]/N=C(/c1ccc(cc1)CNC(=O)[C@@H]2CCCN2C(=O)[C@@H](CCCN/C(=N/[H])/N)NS(=O)(=O)Cc3ccccc3)\N

>  <MissingHeavyAtoms>  (67) 
0

>  <Model>  (67) 
1

>  <AltIds>  (67) 


>  <pKI>  (67) 
8.59

>  <ChemblID>  (67) 
CHEMBL1215083

>  <standardized_canonical_smiles>  (67) 
N=C(N)NCCC[C@@H](NS(=O)(=O)Cc1ccccc1)C(=O)N1CCC[C@H]1C(=O)NCc1ccc(C(=N)N)cc1

$$$$
3EQ0_2TS_H_901
     RDKit          3D

 39 41  0  0  0  0  0  0  0  0999 V2000
   16.2230  -18.0610   22.3270 C   0  0  0  0  0  0  0  0  0  0  0  0
   15.7350  -16.4810   22.1690 S   0  0  0  0  0  0  0  0  0  0  0  0
   15.6680  -18.6340   23.6110 C   0  0  0  0  0  0  0  0  0  0  0  0
   14.3250  -18.9800   23.6940 C   0  0  0  0  0  0  0  0  0  0  0  0
   13.8150  -19.5070   24.8750 C   0  0  0  0  0  0  0  0  0  0  0  0
   14.6490  -19.6880   25.9730 C   0  0  0  0  0  0  0  0  0  0  0  0
   15.9920  -19.3420   25.8890 C   0  0  0  0  0  0  0  0  0  0  0  0
   16.5020  -18.8150   24.7080 C   0  0  0  0  0  0  0  0  0  0  0  0
   16.1850  -16.1530   20.8450 O   0  0  0  0  0  0  0  0  0  0  0  0
   14.3030  -16.5990   22.1720 O   0  0  0  0  0  0  0  0  0  0  0  0
   16.3600  -15.6070   23.3550 N   0  0  0  0  0  0  0  0  0  0  0  0
   17.5020  -14.7510   23.1000 C   0  0  0  0  0  0  0  0  0  0  0  0
   18.2410  -14.4670   24.4020 C   0  0  0  0  0  0  0  0  0  0  0  0
   18.6300  -15.7630   25.1030 C   0  0  0  0  0  0  0  0  0  0  0  0
   19.0270  -17.2350   25.1060 C   0  0  0  0  0  0  0  0  0  0  0  0
   19.4120  -17.5190   26.4800 N   0  0  0  0  0  0  0  0  0  0  0  0
   19.0380  -18.5610   27.2170 C   0  0  0  0  0  0  0  0  0  0  0  0
   19.4460  -18.6640   28.4780 N   0  0  0  0  0  0  0  0  0  0  0  0
   18.2760  -19.4370   26.7280 N   0  0  0  0  0  0  0  0  0  0  0  0
   17.0900  -13.4550   22.4660 C   0  0  0  0  0  0  0  0  0  0  0  0
   16.0510  -12.9080   22.7940 O   0  0  0  0  0  0  0  0  0  0  0  0
   17.9120  -12.9570   21.5470 N   0  0  0  0  0  0  0  0  0  0  0  0
   17.5930  -11.7000   20.8760 C   0  0  0  0  0  0  0  0  0  0  0  0
   16.1910  -11.6980   20.3440 C   0  0  0  0  0  0  0  0  0  0  0  0
   15.7890  -12.6190   19.6530 O   0  0  0  0  0  0  0  0  0  0  0  0
   18.5760  -11.6100   19.7170 C   0  0  0  0  0  0  0  0  0  0  0  0
   19.5550  -12.7610   19.8540 C   0  0  0  0  0  0  0  0  0  0  0  0
   19.1700  -13.5480   21.0990 C   0  0  0  0  0  0  0  0  0  0  0  0
   15.4350  -10.6520   20.6680 N   0  0  0  0  0  0  0  0  0  0  0  0
   14.0530  -10.4170   20.2790 C   0  0  0  0  0  0  0  0  0  0  0  0
   13.1910  -10.3230   21.5170 C   0  0  0  0  0  0  0  0  0  0  0  0
   12.3860  -11.3880   21.8810 C   0  0  0  0  0  0  0  0  0  0  0  0
   12.3690  -12.6440   21.0420 C   0  0  0  0  0  0  0  0  0  0  0  0
   11.1120  -13.2770   21.3910 N   0  0  0  0  0  0  0  0  0  0  0  0
   11.5920  -11.3040   23.0190 C   0  0  0  0  0  0  0  0  0  0  0  0
   11.6060  -10.1480   23.7920 C   0  0  0  0  0  0  0  0  0  0  0  0
   12.4140   -9.0790   23.4260 C   0  0  0  0  0  0  0  0  0  0  0  0
   12.4350   -7.5860   24.4220 Cl  0  0  0  0  0  0  0  0  0  0  0  0
   13.2070   -9.1670   22.2880 C   0  0  0  0  0  0  0  0  0  0  0  0
  2  1  1  0
  3  1  1  0
  9  2  2  0
 10  2  2  0
 11  2  1  0
  4  3  2  0
  8  3  1  0
  5  4  1  0
  6  5  2  0
  7  6  1  0
  8  7  2  0
 12 11  1  0
 13 12  1  0
 20 12  1  0
 14 13  1  0
 15 14  1  0
 16 15  1  0
 17 16  1  0
 18 17  1  0
 19 17  2  0
 21 20  2  0
 22 20  1  0
 23 22  1  0
 28 22  1  0
 24 23  1  0
 26 23  1  0
 25 24  2  0
 29 24  1  0
 27 26  1  0
 28 27  1  0
 30 29  1  0
 31 30  1  0
 32 31  2  0
 39 31  1  0
 33 32  1  0
 35 32  1  0
 34 33  1  0
 36 35  2  0
 37 36  1  0
 38 37  1  0
 39 37  2  0
A    1
C1
A    2
S19
A    3
C55
A    4
C50
A    5
C51
A    6
C52
A    7
C53
A    8
C54
A    9
O27
A   10
O28
A   11
N29
A   12
C28
A   13
C42
A   14
C43
A   15
C44
A   16
N45
A   17
C34
A   18
N39
A   19
N38
A   20
C27
A   21
O38
A   22
N25
A   23
C26
A   24
C21
A   25
O39
A   26
C22
A   27
C23
A   28
C24
A   29
N19
A   30
C10
A   31
C6
A   32
C5
A   33
C32
A   34
N33
A   35
C4
A   36
C3
A   37
C2
A   38
CL1
A   39
C7
M  END
>  <Id>  (68) 
3EQ0_2TS_H_901

>  <ChainId>  (68) 
H

>  <AsymId>  (68) 
D

>  <SeqNum>  (68) 
901

>  <Name>  (68) 
(2S)-N-[[2-(aminomethyl)-5-chloro-phenyl]methyl]-1-[(2R)-5-carbamimidamido-2-(phenylmethylsulfonylamino)pentanoyl]pyrrolidine-2-carboxamide

>  <SystematicName>  (68) 
(2S)-N-[[2-(aminomethyl)-5-chloro-phenyl]methyl]-1-[(2R)-5-carbamimidamido-2-(phenylmethylsulfonylamino)pentanoyl]pyrrolidine-2-carboxamide

>  <Synonyms>  (68) 
(S)-1-((R)-5-Guanidino-2-phenylmethanesulfonylamino-pentanoyl)-pyrrolidine-2-carboxylic acid 2aminomethyl-5-chloro-benzylamide

>  <Type>  (68) 
peptide-like

>  <Formula>  (68) 
C26 H36 Cl N7 O4 S

>  <ObservedFormula>  (68) 
C26 S Cl N7 O4

>  <MolecularWeight>  (68) 
578.127

>  <ModifiedDate>  (68) 
2012-01-05

>  <Parent>  (68) 


>  <OneLetterCode>  (68) 


>  <SubcomponentList>  (68) 
PMS DAR PRO 00T

>  <AmbiguousFlag>  (68) 
N

>  <InsertionCode>  (68) 


>  <InstanceId>  (68) 
3EQ0_2TS_H_901

>  <ChemCompId>  (68) 
2TS

>  <PdbId>  (68) 
3EQ0

>  <ResidueNumber>  (68) 
901

>  <InChI>  (68) 
InChI=1S/C26H36ClN7O4S/c27-21-11-10-19(15-28)20(14-21)16-32-24(35)23-9-5-13-34(23)25(36)22(8-4-12-31-26(29)30)33-39(37,38)17-18-6-2-1-3-7-18/h1-3,6-7,10-11,14,22-23,33H,4-5,8-9,12-13,15-17,28H2,(H,32,35)(H4,29,30,31)/t22-,23+/m1/s1

>  <InChIKey>  (68) 
MWLLGEVAEDIFRC-PKTZIBPZSA-N

>  <SMILES>  (68) 
[H]/N=C(\N)/NCCC[C@H](C(=O)N1CCC[C@H]1C(=O)NCc2cc(ccc2CN)Cl)NS(=O)(=O)Cc3ccccc3

>  <MissingHeavyAtoms>  (68) 
0

>  <Model>  (68) 
1

>  <AltIds>  (68) 


>  <pKI>  (68) 
9.0

>  <ChemblID>  (68) 
CHEMBL1215084

>  <standardized_canonical_smiles>  (68) 
N=C(N)NCCC[C@@H](NS(=O)(=O)Cc1ccccc1)C(=O)N1CCC[C@H]1C(=O)NCc1cc(Cl)ccc1CN

$$$$
5JFD_2TS_H_301
     RDKit          3D

 39 41  0  0  0  0  0  0  0  0999 V2000
   16.3410  -18.7850   22.5220 C   0  0  0  0  0  0  0  0  0  0  0  0
   15.6850  -17.1680   22.1540 S   0  0  0  0  0  0  0  0  0  0  0  0
   16.0740  -19.3410   23.8990 C   0  0  0  0  0  0  0  0  0  0  0  0
   14.7900  -19.6920   24.2810 C   0  0  0  0  0  0  0  0  0  0  0  0
   14.5350  -20.1640   25.5620 C   0  0  0  0  0  0  0  0  0  0  0  0
   15.5670  -20.3060   26.4700 C   0  0  0  0  0  0  0  0  0  0  0  0
   16.8490  -19.9670   26.0970 C   0  0  0  0  0  0  0  0  0  0  0  0
   17.1010  -19.4830   24.8190 C   0  0  0  0  0  0  0  0  0  0  0  0
   14.2730  -17.2380   22.3490 O   0  0  0  0  0  0  0  0  0  0  0  0
   16.2030  -16.7540   20.8890 O   0  0  0  0  0  0  0  0  0  0  0  0
   16.2930  -16.1630   23.2730 N   0  0  0  0  0  0  0  0  0  0  0  0
   17.5140  -15.3800   23.1110 C   0  0  0  0  0  0  0  0  0  0  0  0
   18.1390  -15.0160   24.4600 C   0  0  0  0  0  0  0  0  0  0  0  0
   18.3330  -16.2590   25.3510 C   0  0  0  0  0  0  0  0  0  0  0  0
   19.0690  -15.8710   26.6440 C   0  0  0  0  0  0  0  0  0  0  0  0
   18.8410  -16.8260   27.7300 N   0  0  0  0  0  0  0  0  0  0  0  0
   19.6070  -18.0020   27.7260 C   0  0  0  0  0  0  0  0  0  0  0  0
   19.2990  -18.8520   28.7840 N   0  0  0  0  0  0  0  0  0  0  0  0
   20.4950  -18.2170   26.7560 N   0  0  0  0  0  0  0  0  0  0  0  0
   17.1250  -14.0890   22.3870 C   0  0  0  0  0  0  0  0  0  0  0  0
   16.1250  -13.4780   22.7310 O   0  0  0  0  0  0  0  0  0  0  0  0
   17.9460  -13.6300   21.4370 N   0  0  0  0  0  0  0  0  0  0  0  0
   17.6450  -12.3840   20.7160 C   0  0  0  0  0  0  0  0  0  0  0  0
   16.1650  -12.2790   20.3660 C   0  0  0  0  0  0  0  0  0  0  0  0
   15.5590  -13.2330   19.8720 O   0  0  0  0  0  0  0  0  0  0  0  0
   18.5080  -12.4970   19.4510 C   0  0  0  0  0  0  0  0  0  0  0  0
   19.7340  -13.2920   19.9280 C   0  0  0  0  0  0  0  0  0  0  0  0
   19.1800  -14.2800   20.9510 C   0  0  0  0  0  0  0  0  0  0  0  0
   15.5990  -11.0980   20.6150 N   0  0  0  0  0  0  0  0  0  0  0  0
   14.1900  -10.8480   20.3260 C   0  0  0  0  0  0  0  0  0  0  0  0
   13.3090  -10.8530   21.5590 C   0  0  0  0  0  0  0  0  0  0  0  0
   12.4860  -11.9550   21.8700 C   0  0  0  0  0  0  0  0  0  0  0  0
   12.4670  -13.2620   21.0730 C   0  0  0  0  0  0  0  0  0  0  0  0
   13.3160  -14.3440   21.6920 N   0  0  0  0  0  0  0  0  0  0  0  0
   11.6450  -11.8860   22.9760 C   0  0  0  0  0  0  0  0  0  0  0  0
   11.5860  -10.7470   23.7650 C   0  0  0  0  0  0  0  0  0  0  0  0
   12.4110   -9.6970   23.4630 C   0  0  0  0  0  0  0  0  0  0  0  0
   12.4080   -8.2870   24.4770 Cl  0  0  0  0  0  0  0  0  0  0  0  0
   13.2630   -9.7350   22.3840 C   0  0  0  0  0  0  0  0  0  0  0  0
  2  1  1  0
  3  1  1  0
  9  2  2  0
 10  2  2  0
 11  2  1  0
  4  3  2  0
  8  3  1  0
  5  4  1  0
  6  5  2  0
  7  6  1  0
  8  7  2  0
 12 11  1  0
 13 12  1  0
 20 12  1  0
 14 13  1  0
 15 14  1  0
 16 15  1  0
 17 16  1  0
 18 17  1  0
 19 17  2  0
 21 20  2  0
 22 20  1  0
 23 22  1  0
 28 22  1  0
 24 23  1  0
 26 23  1  0
 25 24  2  0
 29 24  1  0
 27 26  1  0
 28 27  1  0
 30 29  1  0
 31 30  1  0
 32 31  2  0
 39 31  1  0
 33 32  1  0
 35 32  1  0
 34 33  1  0
 36 35  2  0
 37 36  1  0
 38 37  1  0
 39 37  2  0
A    1
C1
A    2
S19
A    3
C55
A    4
C50
A    5
C51
A    6
C52
A    7
C53
A    8
C54
A    9
O27
A   10
O28
A   11
N29
A   12
C28
A   13
C42
A   14
C43
A   15
C44
A   16
N45
A   17
C34
A   18
N39
A   19
N38
A   20
C27
A   21
O38
A   22
N25
A   23
C26
A   24
C21
A   25
O39
A   26
C22
A   27
C23
A   28
C24
A   29
N19
A   30
C10
A   31
C6
A   32
C5
A   33
C32
A   34
N33
A   35
C4
A   36
C3
A   37
C2
A   38
CL1
A   39
C7
M  END
>  <Id>  (69) 
5JFD_2TS_H_301

>  <ChainId>  (69) 
H

>  <AsymId>  (69) 
D

>  <SeqNum>  (69) 
301

>  <Name>  (69) 
(2S)-N-[[2-(aminomethyl)-5-chloro-phenyl]methyl]-1-[(2R)-5-carbamimidamido-2-(phenylmethylsulfonylamino)pentanoyl]pyrrolidine-2-carboxamide

>  <SystematicName>  (69) 
(2S)-N-[[2-(aminomethyl)-5-chloro-phenyl]methyl]-1-[(2R)-5-carbamimidamido-2-(phenylmethylsulfonylamino)pentanoyl]pyrrolidine-2-carboxamide

>  <Synonyms>  (69) 
(S)-1-((R)-5-Guanidino-2-phenylmethanesulfonylamino-pentanoyl)-pyrrolidine-2-carboxylic acid 2aminomethyl-5-chloro-benzylamide

>  <Type>  (69) 
peptide-like

>  <Formula>  (69) 
C26 H36 Cl N7 O4 S

>  <ObservedFormula>  (69) 
C26 S Cl N7 O4

>  <MolecularWeight>  (69) 
578.127

>  <ModifiedDate>  (69) 
2012-01-05

>  <Parent>  (69) 


>  <OneLetterCode>  (69) 


>  <SubcomponentList>  (69) 
PMS DAR PRO 00T

>  <AmbiguousFlag>  (69) 
N

>  <InsertionCode>  (69) 


>  <InstanceId>  (69) 
5JFD_2TS_H_301

>  <ChemCompId>  (69) 
2TS

>  <PdbId>  (69) 
5JFD

>  <ResidueNumber>  (69) 
301

>  <InChI>  (69) 
InChI=1S/C26H36ClN7O4S/c27-21-11-10-19(15-28)20(14-21)16-32-24(35)23-9-5-13-34(23)25(36)22(8-4-12-31-26(29)30)33-39(37,38)17-18-6-2-1-3-7-18/h1-3,6-7,10-11,14,22-23,33H,4-5,8-9,12-13,15-17,28H2,(H,32,35)(H4,29,30,31)/t22-,23+/m1/s1

>  <InChIKey>  (69) 
MWLLGEVAEDIFRC-PKTZIBPZSA-N

>  <SMILES>  (69) 
[H]/N=C(\N)/NCCC[C@H](C(=O)N1CCC[C@H]1C(=O)NCc2cc(ccc2CN)Cl)NS(=O)(=O)Cc3ccccc3

>  <MissingHeavyAtoms>  (69) 
0

>  <Model>  (69) 
1

>  <AltIds>  (69) 


>  <pKI>  (69) 
9.0

>  <ChemblID>  (69) 
CHEMBL1215084

>  <standardized_canonical_smiles>  (69) 
N=C(N)NCCC[C@@H](NS(=O)(=O)Cc1ccccc1)C(=O)N1CCC[C@H]1C(=O)NCc1cc(Cl)ccc1CN

$$$$
3RM2_S00_H_1
     RDKit          3D

 39 42  0  0  0  0  0  0  0  0999 V2000
   14.6630  -15.1830   21.1480 C   0  0  0  0  0  0  0  0  0  0  0  0
   15.4190  -16.4520   21.9520 S   0  0  0  0  0  0  0  0  0  0  0  0
   13.6560  -15.6750   20.1290 C   0  0  0  0  0  0  0  0  0  0  0  0
   12.3020  -15.6870   20.4450 C   0  0  0  0  0  0  0  0  0  0  0  0
   11.3750  -16.1440   19.5080 C   0  0  0  0  0  0  0  0  0  0  0  0
   11.7940  -16.5820   18.2520 C   0  0  0  0  0  0  0  0  0  0  0  0
   13.1480  -16.5600   17.9350 C   0  0  0  0  0  0  0  0  0  0  0  0
   14.0730  -16.1060   18.8700 C   0  0  0  0  0  0  0  0  0  0  0  0
   16.3110  -17.1490   21.0800 O   0  0  0  0  0  0  0  0  0  0  0  0
   14.4080  -17.2980   22.5290 O   0  0  0  0  0  0  0  0  0  0  0  0
   19.5630  -14.4100   24.4290 C   0  0  0  0  0  0  0  0  0  0  0  0
   20.6010  -15.4370   23.9910 C   0  0  0  0  0  0  0  0  0  0  0  0
   21.9960  -14.8170   24.0120 C   0  0  0  0  0  0  0  0  0  0  0  0
   22.3460  -14.2270   25.3760 C   0  0  0  0  0  0  0  0  0  0  0  0
   21.2770  -13.2530   25.8570 C   0  0  0  0  0  0  0  0  0  0  0  0
   19.9020  -13.9110   25.8350 C   0  0  0  0  0  0  0  0  0  0  0  0
   16.2880  -15.8500   23.1620 N   0  0  0  0  0  0  0  0  0  0  0  0
   17.5880  -15.2250   22.9950 C   0  0  0  0  0  0  0  0  0  0  0  0
   18.1670  -15.0320   24.4030 C   0  0  0  0  0  0  0  0  0  0  0  0
   17.4520  -13.8710   22.3380 C   0  0  0  0  0  0  0  0  0  0  0  0
   16.5580  -13.1020   22.6820 O   0  0  0  0  0  0  0  0  0  0  0  0
   18.3250  -13.5250   21.3860 N   0  0  0  0  0  0  0  0  0  0  0  0
   18.2010  -12.2080   20.7480 C   0  0  0  0  0  0  0  0  0  0  0  0
   16.8790  -12.0970   20.0460 C   0  0  0  0  0  0  0  0  0  0  0  0
   16.4410  -13.0330   19.3920 O   0  0  0  0  0  0  0  0  0  0  0  0
   19.3460  -12.1090   19.7500 C   0  0  0  0  0  0  0  0  0  0  0  0
   20.0510  -13.4490   19.7530 C   0  0  0  0  0  0  0  0  0  0  0  0
   19.4310  -14.3140   20.8410 C   0  0  0  0  0  0  0  0  0  0  0  0
   16.2000  -10.9660   20.1790 N   0  0  0  0  0  0  0  0  0  0  0  0
   14.9000  -10.7320   19.5780 C   0  0  0  0  0  0  0  0  0  0  0  0
   13.8760  -10.7510   20.6910 C   0  0  0  0  0  0  0  0  0  0  0  0
   13.1050  -11.8820   20.9070 C   0  0  0  0  0  0  0  0  0  0  0  0
   12.1680  -11.9160   21.9310 C   0  0  0  0  0  0  0  0  0  0  0  0
   11.9940  -10.8120   22.7550 C   0  0  0  0  0  0  0  0  0  0  0  0
   10.9760  -10.8260   23.8540 C   0  0  0  0  0  0  0  0  0  0  0  0
   10.3460  -11.8870   24.1570 N   0  0  0  0  0  0  0  0  0  0  0  0
   10.7260   -9.6960   24.4960 N   0  0  0  0  0  0  0  0  0  0  0  0
   12.7720   -9.6840   22.5360 C   0  0  0  0  0  0  0  0  0  0  0  0
   13.7060   -9.6440   21.5110 C   0  0  0  0  0  0  0  0  0  0  0  0
  2  1  1  0
  3  1  1  0
  9  2  2  0
 10  2  2  0
 17  2  1  0
  4  3  2  0
  8  3  1  0
  5  4  1  0
  6  5  2  0
  7  6  1  0
  8  7  2  0
 12 11  1  0
 16 11  1  0
 19 11  1  0
 13 12  1  0
 14 13  1  0
 15 14  1  0
 16 15  1  0
 18 17  1  0
 19 18  1  0
 20 18  1  0
 21 20  2  0
 22 20  1  0
 23 22  1  0
 28 22  1  0
 24 23  1  0
 26 23  1  0
 25 24  2  0
 29 24  1  0
 27 26  1  0
 28 27  1  0
 30 29  1  0
 31 30  1  0
 32 31  2  0
 39 31  1  0
 33 32  1  0
 34 33  2  0
 35 34  1  0
 38 34  1  0
 36 35  2  0
 37 35  1  0
 39 38  2  0
A    1
C7
A    2
S8
A    3
C4
A    4
C5
A    5
C6
A    6
C1
A    7
C2
A    8
C3
A    9
O12
A   10
O13
A   11
C15
A   12
C16
A   13
C17
A   14
C18
A   15
C19
A   16
C20
A   17
N9
A   18
C10
A   19
C14
A   20
C11
A   21
O31
A   22
N21
A   23
C22
A   24
C26
A   25
O30
A   26
C23
A   27
C24
A   28
C25
A   29
N27
A   30
C28
A   31
C29
A   32
C33
A   33
C34
A   34
C35
A   35
C37
A   36
N38
A   37
N39
A   38
C36
A   39
C32
M  END
>  <Id>  (70) 
3RM2_S00_H_1

>  <ChainId>  (70) 
H

>  <AsymId>  (70) 
E

>  <SeqNum>  (70) 
1

>  <Name>  (70) 
N-(benzylsulfonyl)-3-cyclohexyl-D-alanyl-N-(4-carbamimidoylbenzyl)-L-prolinamide

>  <SystematicName>  (70) 
(2S)-N-[(4-carbamimidoylphenyl)methyl]-1-[(2R)-3-cyclohexyl-2-[(phenylmethyl)sulfonylamino]propanoyl]pyrrolidine-2-carboxamide

>  <Synonyms>  (70) 


>  <Type>  (70) 
peptide-like

>  <Formula>  (70) 
C29 H39 N5 O4 S

>  <ObservedFormula>  (70) 
C29 S N5 O4

>  <MolecularWeight>  (70) 
553.716

>  <ModifiedDate>  (70) 
2012-04-20

>  <Parent>  (70) 


>  <OneLetterCode>  (70) 


>  <SubcomponentList>  (70) 
PMS ZAL PRO 00S

>  <AmbiguousFlag>  (70) 
N

>  <InsertionCode>  (70) 


>  <InstanceId>  (70) 
3RM2_S00_H_1

>  <ChemCompId>  (70) 
S00

>  <PdbId>  (70) 
3RM2

>  <ResidueNumber>  (70) 
1

>  <InChI>  (70) 
InChI=1S/C29H39N5O4S/c30-27(31)24-15-13-22(14-16-24)19-32-28(35)26-12-7-17-34(26)29(36)25(18-21-8-3-1-4-9-21)33-39(37,38)20-23-10-5-2-6-11-23/h2,5-6,10-11,13-16,21,25-26,33H,1,3-4,7-9,12,17-20H2,(H3,30,31)(H,32,35)/t25-,26+/m1/s1

>  <InChIKey>  (70) 
DJNNZKJZFCRFRX-FTJBHMTQSA-N

>  <SMILES>  (70) 
[H]/N=C(/c1ccc(cc1)CNC(=O)[C@@H]2CCCN2C(=O)[C@@H](CC3CCCCC3)NS(=O)(=O)Cc4ccccc4)\\N

>  <MissingHeavyAtoms>  (70) 
0

>  <Model>  (70) 
1

>  <AltIds>  (70) 


>  <pKI>  (70) 
9.96

>  <ChemblID>  (70) 
CHEMBL1215085

>  <standardized_canonical_smiles>  (70) 
N=C(N)c1ccc(CNC(=O)[C@@H]2CCCN2C(=O)[C@@H](CC2CCCCC2)NS(=O)(=O)Cc2ccccc2)cc1

$$$$
3RMO_S04_H_1
     RDKit          3D

 39 42  0  0  0  0  0  0  0  0999 V2000
   15.9690  -17.9080   22.0250 C   0  0  0  0  0  0  0  0  0  0  0  0
   15.4670  -16.3170   21.9150 S   0  0  0  0  0  0  0  0  0  0  0  0
   15.3390  -18.5500   23.2410 C   0  0  0  0  0  0  0  0  0  0  0  0
   14.0790  -19.1350   23.1440 C   0  0  0  0  0  0  0  0  0  0  0  0
   13.4960  -19.7160   24.2670 C   0  0  0  0  0  0  0  0  0  0  0  0
   14.1670  -19.7050   25.4860 C   0  0  0  0  0  0  0  0  0  0  0  0
   15.4240  -19.1200   25.5820 C   0  0  0  0  0  0  0  0  0  0  0  0
   16.0100  -18.5410   24.4600 C   0  0  0  0  0  0  0  0  0  0  0  0
   15.9490  -15.7870   20.6720 O   0  0  0  0  0  0  0  0  0  0  0  0
   14.0350  -16.2280   21.9800 O   0  0  0  0  0  0  0  0  0  0  0  0
   19.2540  -13.8220   24.4350 C   0  0  0  0  0  0  0  0  0  0  0  0
   19.5720  -13.4300   25.8770 C   0  0  0  0  0  0  0  0  0  0  0  0
   20.8930  -12.6760   25.9530 C   0  0  0  0  0  0  0  0  0  0  0  0
   22.0250  -13.4870   25.3350 C   0  0  0  0  0  0  0  0  0  0  0  0
   21.6880  -13.9430   23.9180 C   0  0  0  0  0  0  0  0  0  0  0  0
   20.3700  -14.7060   23.8820 C   0  0  0  0  0  0  0  0  0  0  0  0
   16.0980  -15.4890   23.1420 N   0  0  0  0  0  0  0  0  0  0  0  0
   17.3190  -14.7160   23.0120 C   0  0  0  0  0  0  0  0  0  0  0  0
   17.9240  -14.5670   24.4060 C   0  0  0  0  0  0  0  0  0  0  0  0
   16.9920  -13.3780   22.4060 C   0  0  0  0  0  0  0  0  0  0  0  0
   16.0700  -12.7160   22.8610 O   0  0  0  0  0  0  0  0  0  0  0  0
   17.7310  -12.9500   21.3810 N   0  0  0  0  0  0  0  0  0  0  0  0
   17.4250  -11.6620   20.7520 C   0  0  0  0  0  0  0  0  0  0  0  0
   15.9650  -11.4950   20.4370 C   0  0  0  0  0  0  0  0  0  0  0  0
   15.3180  -12.4040   19.9340 O   0  0  0  0  0  0  0  0  0  0  0  0
   18.2330  -11.6880   19.4560 C   0  0  0  0  0  0  0  0  0  0  0  0
   19.3520  -12.6850   19.6950 C   0  0  0  0  0  0  0  0  0  0  0  0
   18.8440  -13.6620   20.7450 C   0  0  0  0  0  0  0  0  0  0  0  0
   15.4050  -10.3260   20.7320 N   0  0  0  0  0  0  0  0  0  0  0  0
   14.0080  -10.0360   20.4420 C   0  0  0  0  0  0  0  0  0  0  0  0
   13.1060  -10.0380   21.6500 C   0  0  0  0  0  0  0  0  0  0  0  0
   12.2860  -11.1200   21.9460 C   0  0  0  0  0  0  0  0  0  0  0  0
   12.2740  -12.3540   21.0740 C   0  0  0  0  0  0  0  0  0  0  0  0
   13.0470  -13.4170   21.6900 N   0  0  0  0  0  0  0  0  0  0  0  0
   11.4510  -11.0780   23.0540 C   0  0  0  0  0  0  0  0  0  0  0  0
   11.4260   -9.9550   23.8730 C   0  0  0  0  0  0  0  0  0  0  0  0
   12.2590   -8.8930   23.5690 C   0  0  0  0  0  0  0  0  0  0  0  0
   12.2440   -7.4520   24.6080 Cl  0  0  0  0  0  0  0  0  0  0  0  0
   13.0930   -8.9210   22.4650 C   0  0  0  0  0  0  0  0  0  0  0  0
  2  1  1  0
  3  1  1  0
  9  2  2  0
 10  2  2  0
 17  2  1  0
  4  3  2  0
  8  3  1  0
  5  4  1  0
  6  5  2  0
  7  6  1  0
  8  7  2  0
 12 11  1  0
 16 11  1  0
 19 11  1  0
 13 12  1  0
 14 13  1  0
 15 14  1  0
 16 15  1  0
 18 17  1  0
 19 18  1  0
 20 18  1  0
 21 20  2  0
 22 20  1  0
 23 22  1  0
 28 22  1  0
 24 23  1  0
 26 23  1  0
 25 24  2  0
 29 24  1  0
 27 26  1  0
 28 27  1  0
 30 29  1  0
 31 30  1  0
 32 31  2  0
 39 31  1  0
 33 32  1  0
 35 32  1  0
 34 33  1  0
 36 35  2  0
 37 36  1  0
 38 37  1  0
 39 37  2  0
A    1
C7
A    2
S8
A    3
C6
A    4
C1
A    5
C2
A    6
C32
A    7
C4
A    8
C5
A    9
O15
A   10
O16
A   11
C12
A   12
C35
A   13
C36
A   14
C37
A   15
C38
A   16
C39
A   17
N9
A   18
C10
A   19
C11
A   20
C13
A   21
O17
A   22
N14
A   23
C18
A   24
C19
A   25
O20
A   26
C23
A   27
C24
A   28
C25
A   29
N21
A   30
C22
A   31
C26
A   32
C27
A   33
C28
A   34
N34
A   35
C29
A   36
C30
A   37
C31
A   38
CL3
A   39
C33
M  END
>  <Id>  (71) 
3RMO_S04_H_1

>  <ChainId>  (71) 
H

>  <AsymId>  (71) 
E

>  <SeqNum>  (71) 
1

>  <Name>  (71) 
N-(benzylsulfonyl)-3-cyclohexyl-D-alanyl-N-[2-(aminomethyl)-5-chlorobenzyl]-L-prolinamide

>  <SystematicName>  (71) 
(2S)-N-[[2-(aminomethyl)-5-chloranyl-phenyl]methyl]-1-[(2R)-3-cyclohexyl-2-[(phenylmethyl)sulfonylamino]propanoyl]pyrrolidine-2-carboxamide

>  <Synonyms>  (71) 


>  <Type>  (71) 
peptide-like

>  <Formula>  (71) 
C29 H39 Cl N4 O4 S

>  <ObservedFormula>  (71) 
C29 S Cl N4 O4

>  <MolecularWeight>  (71) 
575.162

>  <ModifiedDate>  (71) 
2012-04-20

>  <Parent>  (71) 


>  <OneLetterCode>  (71) 


>  <SubcomponentList>  (71) 
PMS ZAL PRO 00T

>  <AmbiguousFlag>  (71) 
N

>  <InsertionCode>  (71) 


>  <InstanceId>  (71) 
3RMO_S04_H_1

>  <ChemCompId>  (71) 
S04

>  <PdbId>  (71) 
3RMO

>  <ResidueNumber>  (71) 
1

>  <InChI>  (71) 
InChI=1S/C29H39ClN4O4S/c30-25-14-13-23(18-31)24(17-25)19-32-28(35)27-12-7-15-34(27)29(36)26(16-21-8-3-1-4-9-21)33-39(37,38)20-22-10-5-2-6-11-22/h2,5-6,10-11,13-14,17,21,26-27,33H,1,3-4,7-9,12,15-16,18-20,31H2,(H,32,35)/t26-,27+/m1/s1

>  <InChIKey>  (71) 
SMGIPPNIBFQJBW-SXOMAYOGSA-N

>  <SMILES>  (71) 
c1ccc(cc1)CS(=O)(=O)N[C@H](CC2CCCCC2)C(=O)N3CCC[C@H]3C(=O)NCc4cc(ccc4CN)Cl

>  <MissingHeavyAtoms>  (71) 
0

>  <Model>  (71) 
1

>  <AltIds>  (71) 


>  <pKI>  (71) 
10.12

>  <ChemblID>  (71) 
CHEMBL1215086

>  <standardized_canonical_smiles>  (71) 
NCc1ccc(Cl)cc1CNC(=O)[C@@H]1CCCN1C(=O)[C@@H](CC1CCCCC1)NS(=O)(=O)Cc1ccccc1

$$$$
3RML_M31_H_1
     RDKit          3D

 32 34  0  0  0  0  0  0  0  0999 V2000
   18.4540  -15.4600   26.2810 C   0  0  0  0  0  0  0  0  0  0  0  0
   17.4900  -15.9820   25.0140 S   0  0  0  0  0  0  0  0  0  0  0  0
   19.6720  -14.6830   25.8110 C   0  0  0  0  0  0  0  0  0  0  0  0
   19.7270  -13.2970   25.9970 C   0  0  0  0  0  0  0  0  0  0  0  0
   20.8320  -12.5660   25.5670 C   0  0  0  0  0  0  0  0  0  0  0  0
   21.8900  -13.2170   24.9420 C   0  0  0  0  0  0  0  0  0  0  0  0
   21.8410  -14.5980   24.7610 C   0  0  0  0  0  0  0  0  0  0  0  0
   20.7350  -15.3290   25.1850 C   0  0  0  0  0  0  0  0  0  0  0  0
   18.1790  -16.8840   24.1400 O   0  0  0  0  0  0  0  0  0  0  0  0
   16.3180  -16.6130   25.5430 O   0  0  0  0  0  0  0  0  0  0  0  0
   17.0310  -14.6910   24.1780 N   0  0  0  0  0  0  0  0  0  0  0  0
   17.7310  -14.3930   22.9520 C   0  0  0  0  0  0  0  0  0  0  0  0
   17.1650  -13.1320   22.3330 C   0  0  0  0  0  0  0  0  0  0  0  0
   16.1420  -12.6410   22.7820 O   0  0  0  0  0  0  0  0  0  0  0  0
   17.8660  -12.6300   21.3300 N   0  0  0  0  0  0  0  0  0  0  0  0
   17.4290  -11.4220   20.6190 C   0  0  0  0  0  0  0  0  0  0  0  0
   15.9520  -11.4020   20.3240 C   0  0  0  0  0  0  0  0  0  0  0  0
   15.3560  -12.3700   19.8520 O   0  0  0  0  0  0  0  0  0  0  0  0
   18.2200  -11.4810   19.3130 C   0  0  0  0  0  0  0  0  0  0  0  0
   19.4970  -12.2330   19.6730 C   0  0  0  0  0  0  0  0  0  0  0  0
   19.0890  -13.2070   20.7650 C   0  0  0  0  0  0  0  0  0  0  0  0
   15.3040  -10.2710   20.6150 N   0  0  0  0  0  0  0  0  0  0  0  0
   13.8860  -10.0940   20.3710 C   0  0  0  0  0  0  0  0  0  0  0  0
   13.0290  -10.0880   21.6140 C   0  0  0  0  0  0  0  0  0  0  0  0
   12.2580  -11.1810   21.9800 C   0  0  0  0  0  0  0  0  0  0  0  0
   12.2680  -12.4590   21.1600 C   0  0  0  0  0  0  0  0  0  0  0  0
   13.0750  -13.4620   21.8540 N   0  0  0  0  0  0  0  0  0  0  0  0
   11.4660  -11.1450   23.1200 C   0  0  0  0  0  0  0  0  0  0  0  0
   11.4190   -9.9940   23.9000 C   0  0  0  0  0  0  0  0  0  0  0  0
   12.1990   -8.9160   23.5210 C   0  0  0  0  0  0  0  0  0  0  0  0
   12.1880   -7.4370   24.5200 Cl  0  0  0  0  0  0  0  0  0  0  0  0
   13.0030   -8.9410   22.3970 C   0  0  0  0  0  0  0  0  0  0  0  0
  2  1  1  0
  3  1  1  0
  9  2  2  0
 10  2  2  0
 11  2  1  0
  4  3  2  0
  8  3  1  0
  5  4  1  0
  6  5  2  0
  7  6  1  0
  8  7  2  0
 12 11  1  0
 13 12  1  0
 14 13  2  0
 15 13  1  0
 16 15  1  0
 21 15  1  0
 17 16  1  0
 19 16  1  0
 18 17  2  0
 22 17  1  0
 20 19  1  0
 21 20  1  0
 23 22  1  0
 24 23  1  0
 25 24  2  0
 32 24  1  0
 26 25  1  0
 28 25  1  0
 27 26  1  0
 29 28  2  0
 30 29  1  0
 31 30  1  0
 32 30  2  0
A    1
C7
A    2
S8
A    3
C6
A    4
C1
A    5
C2
A    6
C30
A    7
C4
A    8
C5
A    9
O13
A   10
O14
A   11
N9
A   12
C10
A   13
C11
A   14
O15
A   15
N12
A   16
C16
A   17
C17
A   18
O18
A   19
C21
A   20
C22
A   21
C23
A   22
N19
A   23
C20
A   24
C24
A   25
C25
A   26
C26
A   27
N32
A   28
C27
A   29
C28
A   30
C29
A   31
CL3
A   32
C31
M  END
>  <Id>  (72) 
3RML_M31_H_1

>  <ChainId>  (72) 
H

>  <AsymId>  (72) 
E

>  <SeqNum>  (72) 
1

>  <Name>  (72) 
N-(benzylsulfonyl)glycyl-N-[2-(aminomethyl)-5-chlorobenzyl]-L-prolinamide

>  <SystematicName>  (72) 
(2S)-N-[[2-(aminomethyl)-5-chloranyl-phenyl]methyl]-1-[2-[(phenylmethyl)sulfonylamino]ethanoyl]pyrrolidine-2-carboxamide

>  <Synonyms>  (72) 


>  <Type>  (72) 
peptide-like

>  <Formula>  (72) 
C22 H27 Cl N4 O4 S

>  <ObservedFormula>  (72) 
C22 S Cl N4 O4

>  <MolecularWeight>  (72) 
478.992

>  <ModifiedDate>  (72) 
2012-04-20

>  <Parent>  (72) 


>  <OneLetterCode>  (72) 


>  <SubcomponentList>  (72) 
PMS GLY PRO 00T

>  <AmbiguousFlag>  (72) 
N

>  <InsertionCode>  (72) 


>  <InstanceId>  (72) 
3RML_M31_H_1

>  <ChemCompId>  (72) 
M31

>  <PdbId>  (72) 
3RML

>  <ResidueNumber>  (72) 
1

>  <InChI>  (72) 
InChI=1S/C22H27ClN4O4S/c23-19-9-8-17(12-24)18(11-19)13-25-22(29)20-7-4-10-27(20)21(28)14-26-32(30,31)15-16-5-2-1-3-6-16/h1-3,5-6,8-9,11,20,26H,4,7,10,12-15,24H2,(H,25,29)/t20-/m0/s1

>  <InChIKey>  (72) 
LCIBXVIGRUMDEF-FQEVSTJZSA-N

>  <SMILES>  (72) 
c1ccc(cc1)CS(=O)(=O)NCC(=O)N2CCC[C@H]2C(=O)NCc3cc(ccc3CN)Cl

>  <MissingHeavyAtoms>  (72) 
0

>  <Model>  (72) 
1

>  <AltIds>  (72) 


>  <pKI>  (72) 
8.82

>  <ChemblID>  (72) 
CHEMBL2152426

>  <standardized_canonical_smiles>  (72) 
NCc1ccc(Cl)cc1CNC(=O)[C@@H]1CCCN1C(=O)CNS(=O)(=O)Cc1ccccc1

$$$$
3RMM_M32_H_1
     RDKit          3D

 33 35  0  0  0  0  0  0  0  0999 V2000
   16.4570  -17.9110   22.5660 C   0  0  0  0  0  0  0  0  0  0  0  0
   15.8280  -16.3830   22.2960 S   0  0  0  0  0  0  0  0  0  0  0  0
   16.1130  -18.4060   23.9530 C   0  0  0  0  0  0  0  0  0  0  0  0
   17.0460  -18.2740   24.9740 C   0  0  0  0  0  0  0  0  0  0  0  0
   16.7520  -18.7190   26.2570 C   0  0  0  0  0  0  0  0  0  0  0  0
   15.5170  -19.3010   26.5180 C   0  0  0  0  0  0  0  0  0  0  0  0
   14.5840  -19.4370   25.4970 C   0  0  0  0  0  0  0  0  0  0  0  0
   14.8780  -18.9890   24.2130 C   0  0  0  0  0  0  0  0  0  0  0  0
   16.2270  -15.9620   20.9850 O   0  0  0  0  0  0  0  0  0  0  0  0
   14.3950  -16.4250   22.3410 O   0  0  0  0  0  0  0  0  0  0  0  0
   16.4070  -15.3860   23.4130 N   0  0  0  0  0  0  0  0  0  0  0  0
   17.5650  -14.5610   23.1530 C   0  0  0  0  0  0  0  0  0  0  0  0
   18.2540  -14.2310   24.4740 C   0  0  0  0  0  0  0  0  0  0  0  0
   17.1650  -13.2780   22.4820 C   0  0  0  0  0  0  0  0  0  0  0  0
   16.1420  -12.7100   22.8480 O   0  0  0  0  0  0  0  0  0  0  0  0
   17.9600  -12.8210   21.5200 N   0  0  0  0  0  0  0  0  0  0  0  0
   17.6340  -11.5760   20.8200 C   0  0  0  0  0  0  0  0  0  0  0  0
   16.1800  -11.4710   20.4460 C   0  0  0  0  0  0  0  0  0  0  0  0
   15.5700  -12.4050   19.9360 O   0  0  0  0  0  0  0  0  0  0  0  0
   18.5310  -11.6090   19.5850 C   0  0  0  0  0  0  0  0  0  0  0  0
   19.7270  -12.4600   19.9880 C   0  0  0  0  0  0  0  0  0  0  0  0
   19.1870  -13.4460   21.0130 C   0  0  0  0  0  0  0  0  0  0  0  0
   15.5690  -10.3130   20.7280 N   0  0  0  0  0  0  0  0  0  0  0  0
   14.1680  -10.0880   20.3950 C   0  0  0  0  0  0  0  0  0  0  0  0
   13.2600  -10.0860   21.6010 C   0  0  0  0  0  0  0  0  0  0  0  0
   12.4690  -11.1810   21.8970 C   0  0  0  0  0  0  0  0  0  0  0  0
   12.5190  -12.4260   21.0380 C   0  0  0  0  0  0  0  0  0  0  0  0
   13.2470  -13.4680   21.7610 N   0  0  0  0  0  0  0  0  0  0  0  0
   11.6200  -11.1670   22.9990 C   0  0  0  0  0  0  0  0  0  0  0  0
   11.5520  -10.0350   23.8080 C   0  0  0  0  0  0  0  0  0  0  0  0
   12.3580   -8.9430   23.5020 C   0  0  0  0  0  0  0  0  0  0  0  0
   12.3010   -7.4900   24.5400 Cl  0  0  0  0  0  0  0  0  0  0  0  0
   13.2120   -8.9540   22.4070 C   0  0  0  0  0  0  0  0  0  0  0  0
  2  1  1  0
  3  1  1  0
  9  2  2  0
 10  2  2  0
 11  2  1  0
  4  3  2  0
  8  3  1  0
  5  4  1  0
  6  5  2  0
  7  6  1  0
  8  7  2  0
 12 11  1  0
 13 12  1  0
 14 12  1  0
 15 14  2  0
 16 14  1  0
 17 16  1  0
 22 16  1  0
 18 17  1  0
 20 17  1  0
 19 18  2  0
 23 18  1  0
 21 20  1  0
 22 21  1  0
 24 23  1  0
 25 24  1  0
 26 25  2  0
 33 25  1  0
 27 26  1  0
 29 26  1  0
 28 27  1  0
 30 29  2  0
 31 30  1  0
 32 31  1  0
 33 31  2  0
A    1
C7
A    2
S8
A    3
C6
A    4
C1
A    5
C2
A    6
C30
A    7
C4
A    8
C5
A    9
O13
A   10
O14
A   11
N9
A   12
C10
A   13
C33
A   14
C11
A   15
O15
A   16
N12
A   17
C16
A   18
C17
A   19
O18
A   20
C21
A   21
C22
A   22
C23
A   23
N19
A   24
C20
A   25
C24
A   26
C25
A   27
C26
A   28
N32
A   29
C27
A   30
C28
A   31
C29
A   32
CL3
A   33
C31
M  END
>  <Id>  (73) 
3RMM_M32_H_1

>  <ChainId>  (73) 
H

>  <AsymId>  (73) 
E

>  <SeqNum>  (73) 
1

>  <Name>  (73) 
N-(benzylsulfonyl)-D-alanyl-N-[2-(aminomethyl)-5-chlorobenzyl]-L-prolinamide

>  <SystematicName>  (73) 
(2S)-N-[[2-(aminomethyl)-5-chloranyl-phenyl]methyl]-1-[(2R)-2-[(phenylmethyl)sulfonylamino]propanoyl]pyrrolidine-2-carboxamide

>  <Synonyms>  (73) 


>  <Type>  (73) 
peptide-like

>  <Formula>  (73) 
C23 H29 Cl N4 O4 S

>  <ObservedFormula>  (73) 
C23 S Cl N4 O4

>  <MolecularWeight>  (73) 
493.019

>  <ModifiedDate>  (73) 
2012-04-20

>  <Parent>  (73) 


>  <OneLetterCode>  (73) 


>  <SubcomponentList>  (73) 
PMS DAL PRO 00T

>  <AmbiguousFlag>  (73) 
N

>  <InsertionCode>  (73) 


>  <InstanceId>  (73) 
3RMM_M32_H_1

>  <ChemCompId>  (73) 
M32

>  <PdbId>  (73) 
3RMM

>  <ResidueNumber>  (73) 
1

>  <InChI>  (73) 
InChI=1S/C23H29ClN4O4S/c1-16(27-33(31,32)15-17-6-3-2-4-7-17)23(30)28-11-5-8-21(28)22(29)26-14-19-12-20(24)10-9-18(19)13-25/h2-4,6-7,9-10,12,16,21,27H,5,8,11,13-15,25H2,1H3,(H,26,29)/t16-,21+/m1/s1

>  <InChIKey>  (73) 
MAUGNQAVJWFOOZ-IERDGZPVSA-N

>  <SMILES>  (73) 
C[C@H](C(=O)N1CCC[C@H]1C(=O)NCc2cc(ccc2CN)Cl)NS(=O)(=O)Cc3ccccc3

>  <MissingHeavyAtoms>  (73) 
0

>  <Model>  (73) 
1

>  <AltIds>  (73) 


>  <pKI>  (73) 
8.66

>  <ChemblID>  (73) 
CHEMBL2152427

>  <standardized_canonical_smiles>  (73) 
C[C@@H](NS(=O)(=O)Cc1ccccc1)C(=O)N1CCC[C@H]1C(=O)NCc1cc(Cl)ccc1CN

$$$$
3RMN_M41_H_1
     RDKit          3D

 35 37  0  0  0  0  0  0  0  0999 V2000
   15.9430  -18.3740   22.0610 C   0  0  0  0  0  0  0  0  0  0  0  0
   15.4800  -16.7750   21.8960 S   0  0  0  0  0  0  0  0  0  0  0  0
   15.2070  -19.0410   23.2070 C   0  0  0  0  0  0  0  0  0  0  0  0
   13.9020  -19.5030   23.0480 C   0  0  0  0  0  0  0  0  0  0  0  0
   13.2420  -20.1100   24.1150 C   0  0  0  0  0  0  0  0  0  0  0  0
   13.8890  -20.2570   25.3380 C   0  0  0  0  0  0  0  0  0  0  0  0
   15.1920  -19.7990   25.4990 C   0  0  0  0  0  0  0  0  0  0  0  0
   15.8490  -19.1950   24.4340 C   0  0  0  0  0  0  0  0  0  0  0  0
   15.9600  -16.2990   20.6350 O   0  0  0  0  0  0  0  0  0  0  0  0
   14.0530  -16.7060   22.0120 O   0  0  0  0  0  0  0  0  0  0  0  0
   16.1400  -15.9330   23.1030 N   0  0  0  0  0  0  0  0  0  0  0  0
   17.2710  -15.0500   22.9380 C   0  0  0  0  0  0  0  0  0  0  0  0
   17.8090  -14.7230   24.3340 C   0  0  0  0  0  0  0  0  0  0  0  0
   17.9440  -15.9620   25.2200 C   0  0  0  0  0  0  0  0  0  0  0  0
   19.1250  -13.9580   24.2570 C   0  0  0  0  0  0  0  0  0  0  0  0
   16.9030  -13.7430   22.2860 C   0  0  0  0  0  0  0  0  0  0  0  0
   15.9620  -13.0980   22.7230 O   0  0  0  0  0  0  0  0  0  0  0  0
   17.6400  -13.3300   21.2570 N   0  0  0  0  0  0  0  0  0  0  0  0
   17.3360  -12.0540   20.5990 C   0  0  0  0  0  0  0  0  0  0  0  0
   15.8740  -11.8940   20.3000 C   0  0  0  0  0  0  0  0  0  0  0  0
   15.2480  -12.8060   19.7810 O   0  0  0  0  0  0  0  0  0  0  0  0
   18.1530  -12.0870   19.3080 C   0  0  0  0  0  0  0  0  0  0  0  0
   19.2530  -13.1120   19.5360 C   0  0  0  0  0  0  0  0  0  0  0  0
   18.7860  -14.0190   20.6690 C   0  0  0  0  0  0  0  0  0  0  0  0
   15.2800  -10.7410   20.6250 N   0  0  0  0  0  0  0  0  0  0  0  0
   13.8650  -10.4930   20.3600 C   0  0  0  0  0  0  0  0  0  0  0  0
   12.9960  -10.4940   21.6100 C   0  0  0  0  0  0  0  0  0  0  0  0
   12.2070  -11.5940   21.9240 C   0  0  0  0  0  0  0  0  0  0  0  0
   12.2280  -12.8230   21.0420 C   0  0  0  0  0  0  0  0  0  0  0  0
   13.0210  -13.8790   21.6510 N   0  0  0  0  0  0  0  0  0  0  0  0
   11.4030  -11.5850   23.0580 C   0  0  0  0  0  0  0  0  0  0  0  0
   11.3640  -10.4600   23.8750 C   0  0  0  0  0  0  0  0  0  0  0  0
   12.1490   -9.3560   23.5520 C   0  0  0  0  0  0  0  0  0  0  0  0
   12.1250   -7.9020   24.6060 Cl  0  0  0  0  0  0  0  0  0  0  0  0
   12.9630   -9.3740   22.4300 C   0  0  0  0  0  0  0  0  0  0  0  0
  2  1  1  0
  3  1  1  0
  9  2  2  0
 10  2  2  0
 11  2  1  0
  4  3  2  0
  8  3  1  0
  5  4  1  0
  6  5  2  0
  7  6  1  0
  8  7  2  0
 12 11  1  0
 13 12  1  0
 16 12  1  0
 14 13  1  0
 15 13  1  0
 17 16  2  0
 18 16  1  0
 19 18  1  0
 24 18  1  0
 20 19  1  0
 22 19  1  0
 21 20  2  0
 25 20  1  0
 23 22  1  0
 24 23  1  0
 26 25  1  0
 27 26  1  0
 28 27  2  0
 35 27  1  0
 29 28  1  0
 31 28  1  0
 30 29  1  0
 32 31  2  0
 33 32  1  0
 34 33  1  0
 35 33  2  0
A    1
C7
A    2
S8
A    3
C4
A    4
C5
A    5
C6
A    6
C1
A    7
C2
A    8
C33
A    9
O12
A   10
O13
A   11
N9
A   12
C10
A   13
C14
A   14
C15
A   15
C16
A   16
C11
A   17
O22
A   18
N17
A   19
C18
A   20
C23
A   21
O32
A   22
C19
A   23
C20
A   24
C21
A   25
N24
A   26
C25
A   27
C26
A   28
C27
A   29
C34
A   30
N35
A   31
C28
A   32
C29
A   33
C30
A   34
CL3
A   35
C31
M  END
>  <Id>  (74) 
3RMN_M41_H_1

>  <ChainId>  (74) 
H

>  <AsymId>  (74) 
E

>  <SeqNum>  (74) 
1

>  <Name>  (74) 
N-(benzylsulfonyl)-D-valyl-N-[2-(aminomethyl)-5-chlorobenzyl]-L-prolinamide

>  <SystematicName>  (74) 
(2S)-N-[[2-(aminomethyl)-5-chloranyl-phenyl]methyl]-1-[(2R)-3-methyl-2-[(phenylmethyl)sulfonylamino]butanoyl]pyrrolidine-2-carboxamide

>  <Synonyms>  (74) 


>  <Type>  (74) 
peptide-like

>  <Formula>  (74) 
C25 H33 Cl N4 O4 S

>  <ObservedFormula>  (74) 
C25 S Cl N4 O4

>  <MolecularWeight>  (74) 
521.072

>  <ModifiedDate>  (74) 
2012-04-20

>  <Parent>  (74) 


>  <OneLetterCode>  (74) 


>  <SubcomponentList>  (74) 
PMS DVA PRO 00T

>  <AmbiguousFlag>  (74) 
N

>  <InsertionCode>  (74) 


>  <InstanceId>  (74) 
3RMN_M41_H_1

>  <ChemCompId>  (74) 
M41

>  <PdbId>  (74) 
3RMN

>  <ResidueNumber>  (74) 
1

>  <InChI>  (74) 
InChI=1S/C25H33ClN4O4S/c1-17(2)23(29-35(33,34)16-18-7-4-3-5-8-18)25(32)30-12-6-9-22(30)24(31)28-15-20-13-21(26)11-10-19(20)14-27/h3-5,7-8,10-11,13,17,22-23,29H,6,9,12,14-16,27H2,1-2H3,(H,28,31)/t22-,23+/m0/s1

>  <InChIKey>  (74) 
PWCVAVZHMMVMMM-XZOQPEGZSA-N

>  <SMILES>  (74) 
CC(C)[C@H](C(=O)N1CCC[C@H]1C(=O)NCc2cc(ccc2CN)Cl)NS(=O)(=O)Cc3ccccc3

>  <MissingHeavyAtoms>  (74) 
0

>  <Model>  (74) 
1

>  <AltIds>  (74) 


>  <pKI>  (74) 
9.1

>  <ChemblID>  (74) 
CHEMBL2152428

>  <standardized_canonical_smiles>  (74) 
CC(C)[C@@H](NS(=O)(=O)Cc1ccccc1)C(=O)N1CCC[C@H]1C(=O)NCc1cc(Cl)ccc1CN

$$$$
3T5F_M34_H_1
     RDKit          3D

 36 38  0  0  0  0  0  0  0  0999 V2000
   16.2800  -17.9220   22.1700 C   0  0  0  0  0  0  0  0  0  0  0  0
   15.7990  -16.3270   22.0500 S   0  0  0  0  0  0  0  0  0  0  0  0
   15.6400  -18.5650   23.3820 C   0  0  0  0  0  0  0  0  0  0  0  0
   14.3690  -19.1240   23.2810 C   0  0  0  0  0  0  0  0  0  0  0  0
   13.7740  -19.7130   24.3940 C   0  0  0  0  0  0  0  0  0  0  0  0
   14.4500  -19.7380   25.6110 C   0  0  0  0  0  0  0  0  0  0  0  0
   15.7210  -19.1810   25.7130 C   0  0  0  0  0  0  0  0  0  0  0  0
   16.3130  -18.5920   24.5990 C   0  0  0  0  0  0  0  0  0  0  0  0
   14.3670  -16.2530   22.1550 O   0  0  0  0  0  0  0  0  0  0  0  0
   16.2160  -15.8120   20.7790 O   0  0  0  0  0  0  0  0  0  0  0  0
   16.4600  -15.4670   23.2390 N   0  0  0  0  0  0  0  0  0  0  0  0
   17.6130  -14.6180   23.0080 C   0  0  0  0  0  0  0  0  0  0  0  0
   18.2970  -14.3100   24.3330 C   0  0  0  0  0  0  0  0  0  0  0  0
   19.2320  -15.4260   24.7700 C   0  0  0  0  0  0  0  0  0  0  0  0
   19.6070  -15.2470   26.2350 C   0  0  0  0  0  0  0  0  0  0  0  0
   20.4760  -15.4640   23.8900 C   0  0  0  0  0  0  0  0  0  0  0  0
   17.2130  -13.3170   22.3870 C   0  0  0  0  0  0  0  0  0  0  0  0
   16.2540  -12.7010   22.8270 O   0  0  0  0  0  0  0  0  0  0  0  0
   17.9450  -12.8710   21.3690 N   0  0  0  0  0  0  0  0  0  0  0  0
   17.5920  -11.6020   20.7340 C   0  0  0  0  0  0  0  0  0  0  0  0
   16.1330  -11.4820   20.3970 C   0  0  0  0  0  0  0  0  0  0  0  0
   15.5310  -12.4090   19.8700 O   0  0  0  0  0  0  0  0  0  0  0  0
   18.4140  -11.5990   19.4510 C   0  0  0  0  0  0  0  0  0  0  0  0
   19.5960  -12.5080   19.7280 C   0  0  0  0  0  0  0  0  0  0  0  0
   19.1100  -13.5200   20.7590 C   0  0  0  0  0  0  0  0  0  0  0  0
   15.5310  -10.3350   20.7050 N   0  0  0  0  0  0  0  0  0  0  0  0
   14.1330  -10.0560   20.4160 C   0  0  0  0  0  0  0  0  0  0  0  0
   13.2420  -10.0740   21.6360 C   0  0  0  0  0  0  0  0  0  0  0  0
   12.4600  -11.1830   21.9310 C   0  0  0  0  0  0  0  0  0  0  0  0
   12.4840  -12.4240   21.0680 C   0  0  0  0  0  0  0  0  0  0  0  0
   13.2290  -13.4660   21.7560 N   0  0  0  0  0  0  0  0  0  0  0  0
   11.6380  -11.1800   23.0510 C   0  0  0  0  0  0  0  0  0  0  0  0
   11.5730  -10.0660   23.8730 C   0  0  0  0  0  0  0  0  0  0  0  0
   12.3680   -8.9690   23.5740 C   0  0  0  0  0  0  0  0  0  0  0  0
   12.3170   -7.5310   24.6140 Cl  0  0  0  0  0  0  0  0  0  0  0  0
   13.1970   -8.9650   22.4630 C   0  0  0  0  0  0  0  0  0  0  0  0
  2  1  1  0
  3  1  1  0
  9  2  2  0
 10  2  2  0
 11  2  1  0
  4  3  2  0
  8  3  1  0
  5  4  1  0
  6  5  2  0
  7  6  1  0
  8  7  2  0
 12 11  1  0
 13 12  1  0
 17 12  1  0
 14 13  1  0
 15 14  1  0
 16 14  1  0
 18 17  2  0
 19 17  1  0
 20 19  1  0
 25 19  1  0
 21 20  1  0
 23 20  1  0
 22 21  2  0
 26 21  1  0
 24 23  1  0
 25 24  1  0
 27 26  1  0
 28 27  1  0
 29 28  2  0
 36 28  1  0
 30 29  1  0
 32 29  1  0
 31 30  1  0
 33 32  2  0
 34 33  1  0
 35 34  1  0
 36 34  2  0
A    1
C7
A    2
S8
A    3
C4
A    4
C5
A    5
C6
A    6
C1
A    7
C2
A    8
C34
A    9
O7
A   10
O19
A   11
N9
A   12
C10
A   13
C20
A   14
C21
A   15
C22
A   16
C23
A   17
C11
A   18
O24
A   19
N12
A   20
C13
A   21
C14
A   22
O28
A   23
C27
A   24
C26
A   25
C25
A   26
N15
A   27
C16
A   28
C17
A   29
C29
A   30
C35
A   31
N36
A   32
C33
A   33
C32
A   34
C31
A   35
CL28
A   36
C30
M  END
>  <Id>  (75) 
3T5F_M34_H_1

>  <ChainId>  (75) 
H

>  <AsymId>  (75) 
E

>  <SeqNum>  (75) 
1

>  <Name>  (75) 
N-(benzylsulfonyl)-D-leucyl-N-[2-(aminomethyl)-5-chlorobenzyl]-L-prolinamide

>  <SystematicName>  (75) 
(2S)-N-[[2-(aminomethyl)-5-chloranyl-phenyl]methyl]-1-[(2R)-4-methyl-2-[(phenylmethyl)sulfonylamino]pentanoyl]pyrrolidine-2-carboxamide

>  <Synonyms>  (75) 


>  <Type>  (75) 
NON-POLYMER

>  <Formula>  (75) 
C26 H35 Cl N4 O4 S

>  <ObservedFormula>  (75) 
C26 S Cl N4 O4

>  <MolecularWeight>  (75) 
535.098

>  <ModifiedDate>  (75) 
2012-07-27

>  <Parent>  (75) 


>  <OneLetterCode>  (75) 


>  <SubcomponentList>  (75) 
PMS DLE PRO 00T

>  <AmbiguousFlag>  (75) 
N

>  <InsertionCode>  (75) 


>  <InstanceId>  (75) 
3T5F_M34_H_1

>  <ChemCompId>  (75) 
M34

>  <PdbId>  (75) 
3T5F

>  <ResidueNumber>  (75) 
1

>  <InChI>  (75) 
InChI=1S/C26H35ClN4O4S/c1-18(2)13-23(30-36(34,35)17-19-7-4-3-5-8-19)26(33)31-12-6-9-24(31)25(32)29-16-21-14-22(27)11-10-20(21)15-28/h3-5,7-8,10-11,14,18,23-24,30H,6,9,12-13,15-17,28H2,1-2H3,(H,29,32)/t23-,24+/m1/s1

>  <InChIKey>  (75) 
ZOCNINZHZQAUIH-RPWUZVMVSA-N

>  <SMILES>  (75) 
CC(C)C[C@H](C(=O)N1CCC[C@H]1C(=O)NCc2cc(ccc2CN)Cl)NS(=O)(=O)Cc3ccccc3

>  <MissingHeavyAtoms>  (75) 
0

>  <Model>  (75) 
1

>  <AltIds>  (75) 


>  <pKI>  (75) 
9.59

>  <ChemblID>  (75) 
CHEMBL2152429

>  <standardized_canonical_smiles>  (75) 
CC(C)C[C@@H](NS(=O)(=O)Cc1ccccc1)C(=O)N1CCC[C@H]1C(=O)NCc1cc(Cl)ccc1CN

$$$$
3RLW_S28_H_1
     RDKit          3D

 32 34  0  0  0  0  0  0  0  0999 V2000
   14.8350  -11.6580   19.7330 C   0  0  0  0  0  0  0  0  0  0  0  0
   20.9000  -13.8120   25.5930 C   0  0  0  0  0  0  0  0  0  0  0  0
   16.6830  -14.0100   22.7690 O   0  0  0  0  0  0  0  0  0  0  0  0
   18.7110  -16.8010   26.4490 C   0  0  0  0  0  0  0  0  0  0  0  0
   16.5880  -13.8690   19.6520 O   0  0  0  0  0  0  0  0  0  0  0  0
   19.8610  -14.6200   21.1400 C   0  0  0  0  0  0  0  0  0  0  0  0
   13.8100  -11.6620   20.8400 C   0  0  0  0  0  0  0  0  0  0  0  0
   21.9930  -14.4230   24.9830 C   0  0  0  0  0  0  0  0  0  0  0  0
   10.8970  -11.6020   23.9890 C   0  0  0  0  0  0  0  0  0  0  0  0
   12.3740  -12.8460   22.3740 C   0  0  0  0  0  0  0  0  0  0  0  0
   10.6540  -10.5180   24.5890 N   0  0  0  0  0  0  0  0  0  0  0  0
   20.4610  -13.6090   20.1730 C   0  0  0  0  0  0  0  0  0  0  0  0
   12.4040  -10.4450   22.3660 C   0  0  0  0  0  0  0  0  0  0  0  0
   16.9470  -12.8440   20.2280 C   0  0  0  0  0  0  0  0  0  0  0  0
   18.1400  -15.8530   23.0590 C   0  0  0  0  0  0  0  0  0  0  0  0
   18.5900  -14.0290   21.5540 N   0  0  0  0  0  0  0  0  0  0  0  0
   19.8480  -14.5840   26.0690 C   0  0  0  0  0  0  0  0  0  0  0  0
   17.7420  -14.5380   22.4400 C   0  0  0  0  0  0  0  0  0  0  0  0
   16.1700  -11.7610   20.3140 N   0  0  0  0  0  0  0  0  0  0  0  0
   18.2970  -12.7690   20.8830 C   0  0  0  0  0  0  0  0  0  0  0  0
   16.5740  -17.9380   25.6790 O   0  0  0  0  0  0  0  0  0  0  0  0
   18.4830  -18.3050   24.3590 O   0  0  0  0  0  0  0  0  0  0  0  0
   11.9100  -11.6340   22.8810 C   0  0  0  0  0  0  0  0  0  0  0  0
   17.3790  -16.0920   24.2630 N   0  0  0  0  0  0  0  0  0  0  0  0
   13.3190  -12.8560   21.3510 C   0  0  0  0  0  0  0  0  0  0  0  0
   22.0230  -15.8040   24.8590 C   0  0  0  0  0  0  0  0  0  0  0  0
   17.7800  -17.3460   25.1710 S   0  0  0  0  0  0  0  0  0  0  0  0
   13.3500  -10.4560   21.3500 C   0  0  0  0  0  0  0  0  0  0  0  0
   20.9670  -16.5760   25.3290 C   0  0  0  0  0  0  0  0  0  0  0  0
   19.3720  -12.6150   19.8160 C   0  0  0  0  0  0  0  0  0  0  0  0
   10.2840  -12.6530   24.3290 N   0  0  0  0  0  0  0  0  0  0  0  0
   19.8750  -15.9700   25.9400 C   0  0  0  0  0  0  0  0  0  0  0  0
 10 25  2  0
 27 22  2  0
 24 15  1  0
 13 23  2  0
  9 11  2  0
 23 10  1  0
 29 32  2  0
 18 16  1  0
 18  3  2  0
  7 25  1  0
 14 19  1  0
  9 23  1  0
 27 21  2  0
 20 14  1  0
 14  5  2  0
  4 27  1  0
 32  4  1  0
 17 32  1  0
 16  6  1  0
 17  2  2  0
 28 13  1  0
  2  8  1  0
 26 29  1  0
 30 12  1  0
 27 24  1  0
 16 20  1  0
  9 31  1  0
  7 28  2  0
  8 26  2  0
 19  1  1  0
 20 30  1  0
 15 18  1  0
 12  6  1  0
  1  7  1  0
A    1
C20
A    2
C2
A    3
O15
A    4
C7
A    5
O18
A    6
C23
A    7
C24
A    8
C3
A    9
C26
A   10
C29
A   11
N30
A   12
C22
A   13
C27
A   14
C17
A   15
C10
A   16
N12
A   17
C1
A   18
C11
A   19
N19
A   20
C16
A   21
O14
A   22
O13
A   23
C28
A   24
N9
A   25
C31
A   26
C4
A   27
S8
A   28
C25
A   29
C5
A   30
C21
A   31
N32
A   32
C6
M  END
>  <InstanceId>  (76) 
3RLW_S28

>  <ChemCompId>  (76) 
S28

>  <PdbId>  (76) 
3RLW

>  <ChainId>  (76) 
H

>  <ResidueNumber>  (76) 
1

>  <InsertionCode>  (76) 
null

>  <Model>  (76) 
1

>  <AltIds>  (76) 


>  <MissingHeavyAtoms>  (76) 
0

>  <ObservedFormula>  (76) 
C22 N5 O4 S

>  <AsymId>  (76) 
E

>  <SeqNum>  (76) 
1

>  <Name>  (76) 
N-(benzylsulfonyl)glycyl-N-(4-carbamimidoylbenzyl)-L-prolinamide

>  <SystematicName>  (76) 
(2S)-N-[(4-carbamimidoylphenyl)methyl]-1-[2-[(phenylmethyl)sulfonylamino]ethanoyl]pyrrolidine-2-carboxamide

>  <Synonyms>  (76) 


>  <Type>  (76) 
peptide-like

>  <Formula>  (76) 
C22 H27 N5 O4 S

>  <MolecularWeight>  (76) 
457.546

>  <ModifiedDate>  (76) 
2012-04-20

>  <Parent>  (76) 


>  <OneLetterCode>  (76) 


>  <SubcomponentList>  (76) 
PMS GLY PRO 00S

>  <AmbiguousFlag>  (76) 
N

>  <InChI>  (76) 
InChI=1S/C22H27N5O4S/c23-21(24)18-10-8-16(9-11-18)13-25-22(29)19-7-4-12-27(19)20(28)14-26-32(30,31)15-17-5-2-1-3-6-17/h1-3,5-6,8-11,19,26H,4,7,12-15H2,(H3,23,24)(H,25,29)/t19-/m0/s1

>  <InChIKey>  (76) 
CEBNOQRCTYYHRQ-IBGZPJMESA-N

>  <SMILES>  (76) 
[H]/N=C(/c1ccc(cc1)CNC(=O)[C@@H]2CCCN2C(=O)CNS(=O)(=O)Cc3ccccc3)\\N

>  <pKI>  (76) 
8.43

>  <ChemblID>  (76) 
CHEMBL2152430

>  <standardized_canonical_smiles>  (76) 
N=C(N)c1ccc(CNC(=O)[C@@H]2CCCN2C(=O)CNS(=O)(=O)Cc2ccccc2)cc1

$$$$
3RLY_S29_H_2
     RDKit          3D

 33 35  0  0  0  0  0  0  0  0999 V2000
   23.1810  -16.8640   25.4820 C   0  0  0  0  0  0  0  0  0  0  0  0
   22.2770  -18.2630   25.5250 S   0  0  0  0  0  0  0  0  0  0  0  0
   22.3060  -15.6280   25.4470 C   0  0  0  0  0  0  0  0  0  0  0  0
   22.1930  -14.9120   24.2680 C   0  0  0  0  0  0  0  0  0  0  0  0
   21.3970  -13.7760   24.2100 C   0  0  0  0  0  0  0  0  0  0  0  0
   20.7230  -13.3400   25.3410 C   0  0  0  0  0  0  0  0  0  0  0  0
   20.8400  -14.0500   26.5270 C   0  0  0  0  0  0  0  0  0  0  0  0
   21.6390  -15.1890   26.5800 C   0  0  0  0  0  0  0  0  0  0  0  0
   21.6370  -18.4490   24.2560 O   0  0  0  0  0  0  0  0  0  0  0  0
   21.3100  -18.2070   26.5870 O   0  0  0  0  0  0  0  0  0  0  0  0
   23.2740  -19.4930   25.7690 N   0  0  0  0  0  0  0  0  0  0  0  0
   23.6540  -19.8690   27.1150 C   0  0  0  0  0  0  0  0  0  0  0  0
   25.0590  -20.4610   27.1080 C   0  0  0  0  0  0  0  0  0  0  0  0
   22.6940  -20.8740   27.6810 C   0  0  0  0  0  0  0  0  0  0  0  0
   22.2240  -21.7440   26.9670 O   0  0  0  0  0  0  0  0  0  0  0  0
   22.3880  -20.7600   28.9690 N   0  0  0  0  0  0  0  0  0  0  0  0
   21.4690  -21.7060   29.5930 C   0  0  0  0  0  0  0  0  0  0  0  0
   20.0260  -21.3630   29.3680 C   0  0  0  0  0  0  0  0  0  0  0  0
   19.1630  -22.0200   29.9260 O   0  0  0  0  0  0  0  0  0  0  0  0
   21.7650  -21.5870   31.0830 C   0  0  0  0  0  0  0  0  0  0  0  0
   22.7900  -20.4790   31.2530 C   0  0  0  0  0  0  0  0  0  0  0  0
   22.8890  -19.7660   29.9140 C   0  0  0  0  0  0  0  0  0  0  0  0
   19.7380  -20.3590   28.5410 N   0  0  0  0  0  0  0  0  0  0  0  0
   18.3990  -19.8850   28.2130 C   0  0  0  0  0  0  0  0  0  0  0  0
   18.1110  -20.1520   26.7540 C   0  0  0  0  0  0  0  0  0  0  0  0
   16.8260  -19.9820   26.2530 C   0  0  0  0  0  0  0  0  0  0  0  0
   16.5640  -20.2290   24.9100 C   0  0  0  0  0  0  0  0  0  0  0  0
   17.5870  -20.6570   24.0730 C   0  0  0  0  0  0  0  0  0  0  0  0
   17.3120  -20.9240   22.6230 C   0  0  0  0  0  0  0  0  0  0  0  0
   18.1490  -20.5750   21.7470 N   0  0  0  0  0  0  0  0  0  0  0  0
   16.1920  -21.5450   22.2640 N   0  0  0  0  0  0  0  0  0  0  0  0
   18.8720  -20.8250   24.5740 C   0  0  0  0  0  0  0  0  0  0  0  0
   19.1340  -20.5760   25.9160 C   0  0  0  0  0  0  0  0  0  0  0  0
  2  1  1  0
  3  1  1  0
  9  2  2  0
 10  2  2  0
 11  2  1  0
  4  3  2  0
  8  3  1  0
  5  4  1  0
  6  5  2  0
  7  6  1  0
  8  7  2  0
 12 11  1  0
 13 12  1  0
 14 12  1  0
 15 14  2  0
 16 14  1  0
 17 16  1  0
 22 16  1  0
 18 17  1  0
 20 17  1  0
 19 18  2  0
 23 18  1  0
 21 20  1  0
 22 21  1  0
 24 23  1  0
 25 24  1  0
 26 25  2  0
 33 25  1  0
 27 26  1  0
 28 27  2  0
 29 28  1  0
 32 28  1  0
 30 29  2  0
 31 29  1  0
 33 32  2  0
A    1
C7
A    2
S8
A    3
C6
A    4
C1
A    5
C2
A    6
C3
A    7
C4
A    8
C5
A    9
O13
A   10
O14
A   11
N9
A   12
C10
A   13
C33
A   14
C11
A   15
O15
A   16
N12
A   17
C16
A   18
C17
A   19
O18
A   20
C21
A   21
C22
A   22
C23
A   23
N19
A   24
C20
A   25
C24
A   26
C31
A   27
C29
A   28
C28
A   29
C26
A   30
N30
A   31
N32
A   32
C27
A   33
C25
M  END
>  <Id>  (77) 
3RLY_S29_H_2

>  <ChainId>  (77) 
H

>  <AsymId>  (77) 
F

>  <SeqNum>  (77) 
2

>  <Name>  (77) 
N-(benzylsulfonyl)-D-alanyl-N-(4-carbamimidoylbenzyl)-L-prolinamide

>  <SystematicName>  (77) 
(2S)-N-[(4-carbamimidoylphenyl)methyl]-1-[(2R)-2-[(phenylmethyl)sulfonylamino]propanoyl]pyrrolidine-2-carboxamide

>  <Synonyms>  (77) 


>  <Type>  (77) 
peptide-like

>  <Formula>  (77) 
C23 H29 N5 O4 S

>  <ObservedFormula>  (77) 
C23 S N5 O4

>  <MolecularWeight>  (77) 
471.572

>  <ModifiedDate>  (77) 
2012-04-20

>  <Parent>  (77) 


>  <OneLetterCode>  (77) 


>  <SubcomponentList>  (77) 
PMS DAL PRO 00S

>  <AmbiguousFlag>  (77) 
N

>  <InsertionCode>  (77) 


>  <InstanceId>  (77) 
3RLY_S29_H_2

>  <ChemCompId>  (77) 
S29

>  <PdbId>  (77) 
3RLY

>  <ResidueNumber>  (77) 
2

>  <InChI>  (77) 
InChI=1S/C23H29N5O4S/c1-16(27-33(31,32)15-18-6-3-2-4-7-18)23(30)28-13-5-8-20(28)22(29)26-14-17-9-11-19(12-10-17)21(24)25/h2-4,6-7,9-12,16,20,27H,5,8,13-15H2,1H3,(H3,24,25)(H,26,29)/t16-,20+/m1/s1

>  <InChIKey>  (77) 
RXILOHGFTAPEST-UZLBHIALSA-N

>  <SMILES>  (77) 
[H]/N=C(/c1ccc(cc1)CNC(=O)[C@@H]2CCCN2C(=O)[C@@H](C)NS(=O)(=O)Cc3ccccc3)\\N

>  <MissingHeavyAtoms>  (77) 
0

>  <Model>  (77) 
1

>  <AltIds>  (77) 


>  <pKI>  (77) 
8.28

>  <ChemblID>  (77) 
CHEMBL2152431

>  <standardized_canonical_smiles>  (77) 
C[C@@H](NS(=O)(=O)Cc1ccccc1)C(=O)N1CCC[C@H]1C(=O)NCc1ccc(C(=N)N)cc1

$$$$
3RM0_S54_H_2
     RDKit          3D

 35 37  0  0  0  0  0  0  0  0999 V2000
   14.6960  -15.4590   21.1440 C   0  0  0  0  0  0  0  0  0  0  0  0
   15.4070  -16.7610   21.9410 S   0  0  0  0  0  0  0  0  0  0  0  0
   13.7000  -15.8980   20.0870 C   0  0  0  0  0  0  0  0  0  0  0  0
   12.3400  -15.9120   20.3760 C   0  0  0  0  0  0  0  0  0  0  0  0
   11.4240  -16.3240   19.4130 C   0  0  0  0  0  0  0  0  0  0  0  0
   11.8650  -16.7110   18.1530 C   0  0  0  0  0  0  0  0  0  0  0  0
   13.2230  -16.6930   17.8580 C   0  0  0  0  0  0  0  0  0  0  0  0
   14.1370  -16.2890   18.8240 C   0  0  0  0  0  0  0  0  0  0  0  0
   14.3730  -17.5390   22.5570 O   0  0  0  0  0  0  0  0  0  0  0  0
   16.2150  -17.5320   21.0310 O   0  0  0  0  0  0  0  0  0  0  0  0
   16.3520  -16.1830   23.1130 N   0  0  0  0  0  0  0  0  0  0  0  0
   17.6790  -15.6510   22.8190 C   0  0  0  0  0  0  0  0  0  0  0  0
   18.6010  -15.8290   24.0190 C   0  0  0  0  0  0  0  0  0  0  0  0
   18.7800  -17.3070   24.3780 C   0  0  0  0  0  0  0  0  0  0  0  0
   18.0690  -15.0730   25.2210 C   0  0  0  0  0  0  0  0  0  0  0  0
   17.5920  -14.2140   22.3500 C   0  0  0  0  0  0  0  0  0  0  0  0
   16.6950  -13.4650   22.7320 O   0  0  0  0  0  0  0  0  0  0  0  0
   18.5190  -13.7870   21.4940 N   0  0  0  0  0  0  0  0  0  0  0  0
   18.4580  -12.4320   20.9430 C   0  0  0  0  0  0  0  0  0  0  0  0
   17.1460  -12.3010   20.2170 C   0  0  0  0  0  0  0  0  0  0  0  0
   16.7080  -13.2430   19.5570 O   0  0  0  0  0  0  0  0  0  0  0  0
   19.5990  -12.3500   19.9360 C   0  0  0  0  0  0  0  0  0  0  0  0
   20.4700  -13.5610   20.2010 C   0  0  0  0  0  0  0  0  0  0  0  0
   19.6100  -14.5720   20.9440 C   0  0  0  0  0  0  0  0  0  0  0  0
   16.4830  -11.1570   20.3300 N   0  0  0  0  0  0  0  0  0  0  0  0
   15.2040  -10.9110   19.6820 C   0  0  0  0  0  0  0  0  0  0  0  0
   14.1300  -10.9250   20.7470 C   0  0  0  0  0  0  0  0  0  0  0  0
   13.8690   -9.7940   21.5000 C   0  0  0  0  0  0  0  0  0  0  0  0
   12.8840   -9.8350   22.4760 C   0  0  0  0  0  0  0  0  0  0  0  0
   12.1480  -10.9870   22.7070 C   0  0  0  0  0  0  0  0  0  0  0  0
   11.0890  -11.0110   23.7670 C   0  0  0  0  0  0  0  0  0  0  0  0
   10.4810  -12.0870   24.0670 N   0  0  0  0  0  0  0  0  0  0  0  0
   10.7890   -9.8890   24.4080 N   0  0  0  0  0  0  0  0  0  0  0  0
   12.4160  -12.1210   21.9580 C   0  0  0  0  0  0  0  0  0  0  0  0
   13.4020  -12.0840   20.9770 C   0  0  0  0  0  0  0  0  0  0  0  0
  2  1  1  0
  3  1  1  0
  9  2  2  0
 10  2  2  0
 11  2  1  0
  4  3  2  0
  8  3  1  0
  5  4  1  0
  6  5  2  0
  7  6  1  0
  8  7  2  0
 12 11  1  0
 13 12  1  0
 16 12  1  0
 14 13  1  0
 15 13  1  0
 17 16  2  0
 18 16  1  0
 19 18  1  0
 24 18  1  0
 20 19  1  0
 22 19  1  0
 21 20  2  0
 25 20  1  0
 23 22  1  0
 24 23  1  0
 26 25  1  0
 27 26  1  0
 28 27  2  0
 35 27  1  0
 29 28  1  0
 30 29  2  0
 31 30  1  0
 34 30  1  0
 32 31  2  0
 33 31  1  0
 35 34  2  0
A    1
C7
A    2
S8
A    3
C4
A    4
C5
A    5
C6
A    6
C1
A    7
C2
A    8
C3
A    9
O22
A   10
O23
A   11
N9
A   12
C10
A   13
C18
A   14
C19
A   15
C20
A   16
C11
A   17
O17
A   18
N12
A   19
C13
A   20
C24
A   21
O33
A   22
C14
A   23
C15
A   24
C16
A   25
N25
A   26
C26
A   27
C27
A   28
C32
A   29
C31
A   30
C30
A   31
C34
A   32
N35
A   33
N36
A   34
C29
A   35
C28
M  END
>  <Id>  (78) 
3RM0_S54_H_2

>  <ChainId>  (78) 
H

>  <AsymId>  (78) 
F

>  <SeqNum>  (78) 
2

>  <Name>  (78) 
N-(benzylsulfonyl)-D-valyl-N-(4-carbamimidoylbenzyl)-L-prolinamide

>  <SystematicName>  (78) 
(2S)-N-[(4-carbamimidoylphenyl)methyl]-1-[(2R)-3-methyl-2-[(phenylmethyl)sulfonylamino]butanoyl]pyrrolidine-2-carboxamide

>  <Synonyms>  (78) 


>  <Type>  (78) 
peptide-like

>  <Formula>  (78) 
C25 H33 N5 O4 S

>  <ObservedFormula>  (78) 
C25 S N5 O4

>  <MolecularWeight>  (78) 
499.626

>  <ModifiedDate>  (78) 
2012-04-20

>  <Parent>  (78) 


>  <OneLetterCode>  (78) 


>  <SubcomponentList>  (78) 
PMS DVA PRO 00S

>  <AmbiguousFlag>  (78) 
N

>  <InsertionCode>  (78) 


>  <InstanceId>  (78) 
3RM0_S54_H_2

>  <ChemCompId>  (78) 
S54

>  <PdbId>  (78) 
3RM0

>  <ResidueNumber>  (78) 
2

>  <InChI>  (78) 
InChI=1S/C25H33N5O4S/c1-17(2)22(29-35(33,34)16-19-7-4-3-5-8-19)25(32)30-14-6-9-21(30)24(31)28-15-18-10-12-20(13-11-18)23(26)27/h3-5,7-8,10-13,17,21-22,29H,6,9,14-16H2,1-2H3,(H3,26,27)(H,28,31)/t21-,22+/m0/s1

>  <InChIKey>  (78) 
BTZOUFLORPKMGE-FCHUYYIVSA-N

>  <SMILES>  (78) 
[H]/N=C(/c1ccc(cc1)CNC(=O)[C@@H]2CCCN2C(=O)[C@@H](C(C)C)NS(=O)(=O)Cc3ccccc3)\\N

>  <MissingHeavyAtoms>  (78) 
0

>  <Model>  (78) 
1

>  <AltIds>  (78) 


>  <pKI>  (78) 
8.89

>  <ChemblID>  (78) 
CHEMBL1809219

>  <standardized_canonical_smiles>  (78) 
CC(C)[C@@H](NS(=O)(=O)Cc1ccccc1)C(=O)N1CCC[C@H]1C(=O)NCc1ccc(C(=N)N)cc1

$$$$
3UWJ_TIF_H_303
     RDKit          3D

 11 11  0  0  0  0  0  0  0  0999 V2000
   23.5750  -16.5210   25.6490 C   0  0  0  0  0  0  0  0  0  0  0  0
   22.9960  -18.0650   25.8400 S   0  0  0  0  0  0  0  0  0  0  0  0
   22.4910  -15.4650   25.5490 C   0  0  0  0  0  0  0  0  0  0  0  0
   22.0310  -14.8090   26.6880 C   0  0  0  0  0  0  0  0  0  0  0  0
   21.0440  -13.8330   26.5880 C   0  0  0  0  0  0  0  0  0  0  0  0
   20.5230  -13.5080   25.3430 C   0  0  0  0  0  0  0  0  0  0  0  0
   20.9860  -14.1570   24.2030 C   0  0  0  0  0  0  0  0  0  0  0  0
   21.9700  -15.1310   24.3060 C   0  0  0  0  0  0  0  0  0  0  0  0
   22.3620  -18.4900   24.6240 O   0  0  0  0  0  0  0  0  0  0  0  0
   22.0550  -18.1110   26.9210 O   0  0  0  0  0  0  0  0  0  0  0  0
   24.2290  -19.0330   26.1630 N   0  0  0  0  0  0  0  0  0  0  0  0
  2  1  1  0
  3  1  1  0
  9  2  2  0
 10  2  2  0
 11  2  1  0
  4  3  2  0
  8  3  1  0
  5  4  1  0
  6  5  2  0
  7  6  1  0
  8  7  2  0
A    1
C7
A    2
S8
A    3
C4
A    4
C5
A    5
C6
A    6
C1
A    7
C2
A    8
C3
A    9
O22
A   10
O23
A   11
N9
M  END
>  <Id>  (79) 
3UWJ_TIF_H_303

>  <ChainId>  (79) 
H

>  <AsymId>  (79) 
F

>  <SeqNum>  (79) 
303

>  <Name>  (79) 
N-(benzylsulfonyl)-D-leucyl-N-(4-carbamimidoylbenzyl)-L-prolinamide

>  <SystematicName>  (79) 
(2S)-N-[(4-carbamimidoylphenyl)methyl]-1-[(2R)-4-methyl-2-[(phenylmethyl)sulfonylamino]pentanoyl]pyrrolidine-2-carboxamide

>  <Synonyms>  (79) 


>  <Type>  (79) 
peptide-like

>  <Formula>  (79) 
C26 H35 N5 O4 S

>  <ObservedFormula>  (79) 
C7 S N O2

>  <MolecularWeight>  (79) 
513.652

>  <ModifiedDate>  (79) 
2012-12-07

>  <Parent>  (79) 


>  <OneLetterCode>  (79) 


>  <SubcomponentList>  (79) 
PMS DLE PRO 00S

>  <AmbiguousFlag>  (79) 
N

>  <InsertionCode>  (79) 


>  <InstanceId>  (79) 
3UWJ_TIF_H_303

>  <ChemCompId>  (79) 
TIF

>  <PdbId>  (79) 
3UWJ

>  <ResidueNumber>  (79) 
303

>  <InChI>  (79) 
InChI=1S/C26H35N5O4S/c1-18(2)15-22(30-36(34,35)17-20-7-4-3-5-8-20)26(33)31-14-6-9-23(31)25(32)29-16-19-10-12-21(13-11-19)24(27)28/h3-5,7-8,10-13,18,22-23,30H,6,9,14-17H2,1-2H3,(H3,27,28)(H,29,32)/t22-,23+/m1/s1

>  <InChIKey>  (79) 
DQTHQWDHVZBQHX-PKTZIBPZSA-N

>  <SMILES>  (79) 
[H]/N=C(/c1ccc(cc1)CNC(=O)[C@@H]2CCCN2C(=O)[C@@H](CC(C)C)NS(=O)(=O)Cc3ccccc3)\N

>  <MissingHeavyAtoms>  (79) 
25

>  <Model>  (79) 
1

>  <AltIds>  (79) 


>  <pKI>  (79) 
9.05

>  <ChemblID>  (79) 
CHEMBL1809234

>  <standardized_canonical_smiles>  (79) 
CC(C)C[C@@H](NS(=O)(=O)Cc1ccccc1)C(=O)N1CCC[C@H]1C(=O)NCc1ccc(C(=N)N)cc1

$$$$
2ZIQ_26U_H_701
     RDKit          3D

 25 26  0  0  0  0  0  0  0  0999 V2000
   19.0120  -14.9240   23.2470 C   0  0  0  0  0  0  0  0  0  0  0  0
   19.4150  -14.5590   24.7030 C   0  0  0  0  0  0  0  0  0  0  0  0
   20.5980  -13.5750   24.9030 C   0  0  0  0  0  0  0  0  0  0  0  0
   21.9850  -14.1370   24.4860 C   0  0  0  0  0  0  0  0  0  0  0  0
   20.6740  -12.9550   26.3300 C   0  0  0  0  0  0  0  0  0  0  0  0
   18.3400  -13.8000   22.4840 C   0  0  0  0  0  0  0  0  0  0  0  0
   17.2650  -13.3520   22.8550 O   0  0  0  0  0  0  0  0  0  0  0  0
   18.8810  -13.2880   21.4270 N   0  0  0  0  0  0  0  0  0  0  0  0
   18.3780  -12.0150   20.9900 C   0  0  0  0  0  0  0  0  0  0  0  0
   16.9860  -12.1250   20.3640 C   0  0  0  0  0  0  0  0  0  0  0  0
   16.7040  -13.2170   19.9040 O   0  0  0  0  0  0  0  0  0  0  0  0
   19.4130  -11.7270   19.8710 C   0  0  0  0  0  0  0  0  0  0  0  0
   20.4230  -12.8830   19.8270 C   0  0  0  0  0  0  0  0  0  0  0  0
   20.1350  -13.8650   20.9650 C   0  0  0  0  0  0  0  0  0  0  0  0
   16.2750  -11.0630   20.3720 N   0  0  0  0  0  0  0  0  0  0  0  0
   14.9520  -11.2010   19.7600 C   0  0  0  0  0  0  0  0  0  0  0  0
   13.8720  -11.0980   20.8590 C   0  0  0  0  0  0  0  0  0  0  0  0
   13.3990  -12.2420   21.4860 C   0  0  0  0  0  0  0  0  0  0  0  0
   12.4290  -12.1800   22.4770 C   0  0  0  0  0  0  0  0  0  0  0  0
   11.9020  -10.9430   22.8680 C   0  0  0  0  0  0  0  0  0  0  0  0
   10.8360  -10.8950   23.9570 C   0  0  0  0  0  0  0  0  0  0  0  0
   10.2130  -11.9940   24.2030 N   0  0  0  0  0  0  0  0  0  0  0  0
   10.6300   -9.7750   24.5530 N   0  0  0  0  0  0  0  0  0  0  0  0
   12.3730   -9.7940   22.2420 C   0  0  0  0  0  0  0  0  0  0  0  0
   13.3500   -9.8530   21.2440 C   0  0  0  0  0  0  0  0  0  0  0  0
  2  1  1  0
  6  1  1  0
  3  2  1  0
  4  3  1  0
  5  3  1  0
  7  6  2  0
  8  6  1  0
  9  8  1  0
 14  8  1  0
 10  9  1  0
 12  9  1  0
 11 10  2  0
 15 10  1  0
 13 12  1  0
 14 13  1  0
 16 15  1  0
 17 16  1  0
 18 17  2  0
 25 17  1  0
 19 18  1  0
 20 19  2  0
 21 20  1  0
 24 20  1  0
 22 21  2  0
 23 21  1  0
 25 24  2  0
A    1
C15
A    2
C33
A    3
C17
A    4
C12
A    5
C49
A    6
C14
A    7
O32
A    8
N1
A    9
C1
A   10
C7
A   11
O22
A   12
C2
A   13
C3
A   14
C4
A   15
N23
A   16
C24
A   17
C25
A   18
C30
A   19
C29
A   20
C28
A   21
C21
A   22
N46
A   23
N47
A   24
C27
A   25
C26
M  END
>  <Id>  (80) 
2ZIQ_26U_H_701

>  <ChainId>  (80) 
H

>  <AsymId>  (80) 
D

>  <SeqNum>  (80) 
701

>  <Name>  (80) 
N-(4-carbamimidoylbenzyl)-1-(4-methylpentanoyl)-L-prolinamide

>  <SystematicName>  (80) 
(2S)-N-[(4-carbamimidoylphenyl)methyl]-1-(4-methylpentanoyl)pyrrolidine-2-carboxamide

>  <Synonyms>  (80) 


>  <Type>  (80) 
NON-POLYMER

>  <Formula>  (80) 
C19 H28 N4 O2

>  <ObservedFormula>  (80) 
C19 N4 O2

>  <MolecularWeight>  (80) 
344.451

>  <ModifiedDate>  (80) 
2012-01-05

>  <Parent>  (80) 


>  <OneLetterCode>  (80) 


>  <SubcomponentList>  (80) 
4MV PRO 00S

>  <AmbiguousFlag>  (80) 
N

>  <InsertionCode>  (80) 


>  <InstanceId>  (80) 
2ZIQ_26U_H_701

>  <ChemCompId>  (80) 
26U

>  <PdbId>  (80) 
2ZIQ

>  <ResidueNumber>  (80) 
701

>  <InChI>  (80) 
InChI=1S/C19H28N4O2/c1-13(2)5-10-17(24)23-11-3-4-16(23)19(25)22-12-14-6-8-15(9-7-14)18(20)21/h6-9,13,16H,3-5,10-12H2,1-2H3,(H3,20,21)(H,22,25)/t16-/m0/s1

>  <InChIKey>  (80) 
AEKJCSNKYXWOAQ-INIZCTEOSA-N

>  <SMILES>  (80) 
[H]/N=C(/c1ccc(cc1)CNC(=O)[C@@H]2CCCN2C(=O)CCC(C)C)\N

>  <MissingHeavyAtoms>  (80) 
0

>  <Model>  (80) 
1

>  <AltIds>  (80) 


>  <pKI>  (80) 
6.0

>  <ChemblID>  (80) 
CHEMBL3423005

>  <standardized_canonical_smiles>  (80) 
CC(C)CCC(=O)N1CCC[C@H]1C(=O)NCc1ccc(C(=N)N)cc1

$$$$
2ZGB_21U_H_1801
     RDKit          3D

 24 25  0  0  0  0  0  0  0  0999 V2000
   16.9520  -15.4520   23.4520 N   0  0  0  0  0  0  0  0  0  0  0  0
   18.1560  -14.6200   23.2580 C   0  0  0  0  0  0  0  0  0  0  0  0
   18.8410  -14.3680   24.6270 C   0  0  0  0  0  0  0  0  0  0  0  0
   20.1150  -13.4720   24.5690 C   0  0  0  0  0  0  0  0  0  0  0  0
   21.3580  -14.2490   24.0210 C   0  0  0  0  0  0  0  0  0  0  0  0
   20.4910  -12.8930   25.9600 C   0  0  0  0  0  0  0  0  0  0  0  0
   17.7200  -13.3370   22.5570 C   0  0  0  0  0  0  0  0  0  0  0  0
   16.7270  -12.7840   23.0250 O   0  0  0  0  0  0  0  0  0  0  0  0
   18.3370  -12.8670   21.4540 N   0  0  0  0  0  0  0  0  0  0  0  0
   17.8760  -11.6540   20.7960 C   0  0  0  0  0  0  0  0  0  0  0  0
   16.3960  -11.6850   20.4790 C   0  0  0  0  0  0  0  0  0  0  0  0
   15.9090  -12.6940   19.9660 O   0  0  0  0  0  0  0  0  0  0  0  0
   18.6500  -11.7230   19.4530 C   0  0  0  0  0  0  0  0  0  0  0  0
   19.8430  -12.6280   19.7140 C   0  0  0  0  0  0  0  0  0  0  0  0
   19.4100  -13.6200   20.8020 C   0  0  0  0  0  0  0  0  0  0  0  0
   15.6640  -10.5860   20.7750 N   0  0  0  0  0  0  0  0  0  0  0  0
   14.2650  -10.5340   20.3250 C   0  0  0  0  0  0  0  0  0  0  0  0
   13.3050  -10.4040   21.5140 C   0  0  0  0  0  0  0  0  0  0  0  0
   12.4090  -11.4440   21.7710 C   0  0  0  0  0  0  0  0  0  0  0  0
   11.5260  -11.3600   22.8390 C   0  0  0  0  0  0  0  0  0  0  0  0
   11.5060  -10.2380   23.6860 C   0  0  0  0  0  0  0  0  0  0  0  0
   12.4020   -9.2010   23.4270 C   0  0  0  0  0  0  0  0  0  0  0  0
   13.2920   -9.2860   22.3500 C   0  0  0  0  0  0  0  0  0  0  0  0
   12.4070   -7.7890   24.4620 Cl  0  0  0  0  0  0  0  0  0  0  0  0
  2  1  1  0
  3  2  1  0
  7  2  1  0
  4  3  1  0
  5  4  1  0
  6  4  1  0
  8  7  2  0
  9  7  1  0
 10  9  1  0
 15  9  1  0
 11 10  1  0
 13 10  1  0
 12 11  2  0
 16 11  1  0
 14 13  1  0
 15 14  1  0
 17 16  1  0
 18 17  1  0
 19 18  2  0
 23 18  1  0
 20 19  1  0
 21 20  2  0
 22 21  1  0
 23 22  2  0
 24 22  1  0
A    1
N2
A    2
C15
A    3
C16
A    4
C12
A    5
C13
A    6
C18
A    7
C14
A    8
O32
A    9
N1
A   10
C1
A   11
C7
A   12
O22
A   13
C2
A   14
C3
A   15
C4
A   16
N23
A   17
C24
A   18
C25
A   19
C26
A   20
C27
A   21
C28
A   22
C29
A   23
C30
A   24
CL21
M  END
>  <Id>  (81) 
2ZGB_21U_H_1801

>  <ChainId>  (81) 
H

>  <AsymId>  (81) 
F

>  <SeqNum>  (81) 
1801

>  <Name>  (81) 
D-leucyl-N-(3-chlorobenzyl)-L-prolinamide

>  <SystematicName>  (81) 
(2S)-1-[(2R)-2-amino-4-methyl-pentanoyl]-N-[(3-chlorophenyl)methyl]pyrrolidine-2-carboxamide

>  <Synonyms>  (81) 


>  <Type>  (81) 
NON-POLYMER

>  <Formula>  (81) 
C18 H26 Cl N3 O2

>  <ObservedFormula>  (81) 
C18 Cl N3 O2

>  <MolecularWeight>  (81) 
351.871

>  <ModifiedDate>  (81) 
2011-06-04

>  <Parent>  (81) 


>  <OneLetterCode>  (81) 


>  <SubcomponentList>  (81) 
DLE PRO C2A

>  <AmbiguousFlag>  (81) 
N

>  <InsertionCode>  (81) 


>  <InstanceId>  (81) 
2ZGB_21U_H_1801

>  <ChemCompId>  (81) 
21U

>  <PdbId>  (81) 
2ZGB

>  <ResidueNumber>  (81) 
1801

>  <InChI>  (81) 
InChI=1S/C18H26ClN3O2/c1-12(2)9-15(20)18(24)22-8-4-7-16(22)17(23)21-11-13-5-3-6-14(19)10-13/h3,5-6,10,12,15-16H,4,7-9,11,20H2,1-2H3,(H,21,23)/t15-,16+/m1/s1

>  <InChIKey>  (81) 
FHVBVJXZKNCSLP-CVEARBPZSA-N

>  <SMILES>  (81) 
CC(C)C[C@H](C(=O)N1CCC[C@H]1C(=O)NCc2cccc(c2)Cl)N

>  <MissingHeavyAtoms>  (81) 
0

>  <Model>  (81) 
1

>  <AltIds>  (81) 


>  <pKI>  (81) 
5.89

>  <ChemblID>  (81) 
CHEMBL3422995

>  <standardized_canonical_smiles>  (81) 
CC(C)C[C@@H](N)C(=O)N1CCC[C@H]1C(=O)NCc1cccc(Cl)c1

$$$$
2ZNK_31U_H_3001
     RDKit          3D

 26 27  0  0  0  0  0  0  0  0999 V2000
   17.1670  -15.5630   23.5770 N   0  0  0  0  0  0  0  0  0  0  0  0
   18.4100  -14.7700   23.3660 C   0  0  0  0  0  0  0  0  0  0  0  0
   19.0080  -14.3400   24.7470 C   0  0  0  0  0  0  0  0  0  0  0  0
   20.3150  -13.4790   24.7640 C   0  0  0  0  0  0  0  0  0  0  0  0
   21.6110  -14.2630   24.3960 C   0  0  0  0  0  0  0  0  0  0  0  0
   20.5960  -12.7320   26.1040 C   0  0  0  0  0  0  0  0  0  0  0  0
   18.0040  -13.5240   22.5540 C   0  0  0  0  0  0  0  0  0  0  0  0
   16.9610  -12.9860   22.9290 O   0  0  0  0  0  0  0  0  0  0  0  0
   18.7000  -13.1080   21.5600 N   0  0  0  0  0  0  0  0  0  0  0  0
   18.3480  -11.8840   20.9040 C   0  0  0  0  0  0  0  0  0  0  0  0
   16.9190  -11.8930   20.3550 C   0  0  0  0  0  0  0  0  0  0  0  0
   16.5590  -12.9630   19.8760 O   0  0  0  0  0  0  0  0  0  0  0  0
   19.3470  -11.9400   19.7220 C   0  0  0  0  0  0  0  0  0  0  0  0
   20.3340  -13.0780   20.0070 C   0  0  0  0  0  0  0  0  0  0  0  0
   19.7940  -13.9670   21.1270 C   0  0  0  0  0  0  0  0  0  0  0  0
   16.2680  -10.7970   20.4240 N   0  0  0  0  0  0  0  0  0  0  0  0
   14.9230  -10.8510   19.8150 C   0  0  0  0  0  0  0  0  0  0  0  0
   13.8510  -10.8140   20.9260 C   0  0  0  0  0  0  0  0  0  0  0  0
   13.3980  -11.9780   21.5430 C   0  0  0  0  0  0  0  0  0  0  0  0
   12.4270  -11.9640   22.5530 C   0  0  0  0  0  0  0  0  0  0  0  0
   11.8850  -10.7370   22.9580 C   0  0  0  0  0  0  0  0  0  0  0  0
   10.8290  -10.6870   24.0520 C   0  0  0  0  0  0  0  0  0  0  0  0
   10.2140  -11.7730   24.3460 N   0  0  0  0  0  0  0  0  0  0  0  0
   10.5950   -9.5710   24.6370 N   0  0  0  0  0  0  0  0  0  0  0  0
   12.3420   -9.5760   22.3380 C   0  0  0  0  0  0  0  0  0  0  0  0
   13.3090   -9.5940   21.3340 C   0  0  0  0  0  0  0  0  0  0  0  0
  2  1  1  0
  3  2  1  0
  7  2  1  0
  4  3  1  0
  5  4  1  0
  6  4  1  0
  8  7  2  0
  9  7  1  0
 10  9  1  0
 15  9  1  0
 11 10  1  0
 13 10  1  0
 12 11  2  0
 16 11  1  0
 14 13  1  0
 15 14  1  0
 17 16  1  0
 18 17  1  0
 19 18  2  0
 26 18  1  0
 20 19  1  0
 21 20  2  0
 22 21  1  0
 25 21  1  0
 23 22  2  0
 24 22  1  0
 26 25  2  0
A    1
N5
A    2
C4
A    3
C33
A    4
C17
A    5
C12
A    6
C49
A    7
C14
A    8
O32
A    9
N1
A   10
C1
A   11
C7
A   12
O22
A   13
C2
A   14
C3
A   15
C32
A   16
N23
A   17
C24
A   18
C25
A   19
C30
A   20
C29
A   21
C28
A   22
C21
A   23
N46
A   24
N47
A   25
C27
A   26
C26
M  END
>  <Id>  (82) 
2ZNK_31U_H_3001

>  <ChainId>  (82) 
H

>  <AsymId>  (82) 
D

>  <SeqNum>  (82) 
3001

>  <Name>  (82) 
D-leucyl-N-(4-carbamimidoylbenzyl)-L-prolinamide

>  <SystematicName>  (82) 
(2S)-1-[(2R)-2-amino-4-methyl-pentanoyl]-N-[(4-carbamimidoylphenyl)methyl]pyrrolidine-2-carboxamide

>  <Synonyms>  (82) 


>  <Type>  (82) 
NON-POLYMER

>  <Formula>  (82) 
C19 H29 N5 O2

>  <ObservedFormula>  (82) 
C19 N5 O2

>  <MolecularWeight>  (82) 
359.466

>  <ModifiedDate>  (82) 
2012-01-05

>  <Parent>  (82) 


>  <OneLetterCode>  (82) 


>  <SubcomponentList>  (82) 
DLE PRO 00S

>  <AmbiguousFlag>  (82) 
N

>  <InsertionCode>  (82) 


>  <InstanceId>  (82) 
2ZNK_31U_H_3001

>  <ChemCompId>  (82) 
31U

>  <PdbId>  (82) 
2ZNK

>  <ResidueNumber>  (82) 
3001

>  <InChI>  (82) 
InChI=1S/C19H29N5O2/c1-12(2)10-15(20)19(26)24-9-3-4-16(24)18(25)23-11-13-5-7-14(8-6-13)17(21)22/h5-8,12,15-16H,3-4,9-11,20H2,1-2H3,(H3,21,22)(H,23,25)/t15-,16+/m1/s1

>  <InChIKey>  (82) 
XFNMDMGNNKIXBT-CVEARBPZSA-N

>  <SMILES>  (82) 
[H]/N=C(/c1ccc(cc1)CNC(=O)[C@@H]2CCCN2C(=O)[C@@H](CC(C)C)N)\N

>  <MissingHeavyAtoms>  (82) 
0

>  <Model>  (82) 
1

>  <AltIds>  (82) 


>  <pKI>  (82) 
8.0

>  <ChemblID>  (82) 
CHEMBL3423208

>  <standardized_canonical_smiles>  (82) 
CC(C)C[C@@H](N)C(=O)N1CCC[C@H]1C(=O)NCc1ccc(C(=N)N)cc1

$$$$
4UDW_N6L_H_1249
     RDKit          3D

 28 30  0  0  0  0  0  0  0  0999 V2000
  125.4440  -14.0490  163.9950 C   0  0  0  0  0  0  0  0  0  0  0  0
  131.0460  -15.8180  163.9040 N   0  0  0  0  0  0  0  0  0  0  0  0
  128.8740  -15.3430  162.1720 O   0  0  0  0  0  0  0  0  0  0  0  0
  125.4320  -15.4460  162.9250 Cl  0  0  0  0  0  0  0  0  0  0  0  0
  126.3400  -13.0390  163.7840 C   0  0  0  0  0  0  0  0  0  0  0  0
  129.3390  -15.5610  165.3200 O   0  0  0  0  0  0  0  0  0  0  0  0
  125.2880  -10.5270  166.7070 Cl  0  0  0  0  0  0  0  0  0  0  0  0
  127.3250  -13.0050  162.6550 C   0  0  0  0  0  0  0  0  0  0  0  0
  128.6980  -13.2740  163.0550 N   0  0  0  0  0  0  0  0  0  0  0  0
  126.2650  -11.9620  164.6410 C   0  0  0  0  0  0  0  0  0  0  0  0
  129.1590  -18.2780  165.4930 N   0  0  0  0  0  0  0  0  0  0  0  0
  125.3340  -11.9310  165.6510 C   0  0  0  0  0  0  0  0  0  0  0  0
  124.4390  -12.9560  165.8800 C   0  0  0  0  0  0  0  0  0  0  0  0
  124.4960  -14.0180  165.0080 C   0  0  0  0  0  0  0  0  0  0  0  0
  129.3780  -14.4040  162.8000 C   0  0  0  0  0  0  0  0  0  0  0  0
  132.1540  -16.5050  163.2300 C   0  0  0  0  0  0  0  0  0  0  0  0
  130.7900  -14.4770  163.3120 C   0  0  0  0  0  0  0  0  0  0  0  0
  131.8250  -14.3550  162.1940 C   0  0  0  0  0  0  0  0  0  0  0  0
  132.8980  -15.3900  162.5100 C   0  0  0  0  0  0  0  0  0  0  0  0
  130.2550  -16.2750  164.8850 C   0  0  0  0  0  0  0  0  0  0  0  0
  130.4800  -17.6630  165.4670 C   0  0  0  0  0  0  0  0  0  0  0  0
  131.0560  -17.5730  166.8830 C   0  0  0  0  0  0  0  0  0  0  0  0
  135.0390  -15.9950  167.0680 C   0  0  0  0  0  0  0  0  0  0  0  0
  134.0000  -15.3280  167.7200 C   0  0  0  0  0  0  0  0  0  0  0  0
  132.7070  -15.8370  167.6620 C   0  0  0  0  0  0  0  0  0  0  0  0
  132.4480  -17.0120  166.9450 C   0  0  0  0  0  0  0  0  0  0  0  0
  133.4840  -17.6820  166.3030 C   0  0  0  0  0  0  0  0  0  0  0  0
  134.7660  -17.1660  166.3740 C   0  0  0  0  0  0  0  0  0  0  0  0
  4  1  1  0
  5  1  2  0
 14  1  1  0
 16  2  1  0
 17  2  1  0
 20  2  1  0
 15  3  2  0
  8  5  1  0
 10  5  1  0
 20  6  2  0
 12  7  1  0
  9  8  1  0
 15  9  1  0
 12 10  2  0
 21 11  1  0
 13 12  1  0
 14 13  2  0
 17 15  1  0
 19 16  1  0
 18 17  1  0
 19 18  1  0
 21 20  1  0
 22 21  1  0
 26 22  1  0
 24 23  2  0
 28 23  1  0
 25 24  1  0
 26 25  2  0
 27 26  1  0
 28 27  2  0
A    1
C
A    2
N
A    3
O
A    4
CL
A    5
C1
A    6
O1
A    7
CL1
A    8
C2
A    9
N2
A   10
C3
A   11
N3
A   12
C4
A   13
C5
A   14
C6
A   15
C7
A   16
C8
A   17
C9
A   18
C10
A   19
C11
A   20
C12
A   21
C13
A   22
C14
A   23
C15
A   24
C16
A   25
C17
A   26
C18
A   27
C19
A   28
C20
M  END
>  <Id>  (83) 
4UDW_N6L_H_1249

>  <ChainId>  (83) 
H

>  <AsymId>  (83) 
F

>  <SeqNum>  (83) 
1249

>  <Name>  (83) 
D-phenylalanyl-N-(2,5-dichlorobenzyl)-L-prolinamide

>  <SystematicName>  (83) 
(2S)-1-[(2R)-2-azanyl-3-phenyl-propanoyl]-N-[[2,5-bis(chloranyl)phenyl]methyl]pyrrolidine-2-carboxamide

>  <Synonyms>  (83) 


>  <Type>  (83) 
NON-POLYMER

>  <Formula>  (83) 
C21 H23 Cl2 N3 O2

>  <ObservedFormula>  (83) 
C21 Cl2 N3 O2

>  <MolecularWeight>  (83) 
420.332

>  <ModifiedDate>  (83) 
2015-08-21

>  <Parent>  (83) 


>  <OneLetterCode>  (83) 


>  <SubcomponentList>  (83) 


>  <AmbiguousFlag>  (83) 
N

>  <InsertionCode>  (83) 


>  <InstanceId>  (83) 
4UDW_N6L_H_1249

>  <ChemCompId>  (83) 
N6L

>  <PdbId>  (83) 
4UDW

>  <ResidueNumber>  (83) 
1249

>  <InChI>  (83) 
InChI=1S/C21H23Cl2N3O2/c22-16-8-9-17(23)15(12-16)13-25-20(27)19-7-4-10-26(19)21(28)18(24)11-14-5-2-1-3-6-14/h1-3,5-6,8-9,12,18-19H,4,7,10-11,13,24H2,(H,25,27)/t18-,19+/m1/s1

>  <InChIKey>  (83) 
XSOBNETYEYXSCD-MOPGFXCFSA-N

>  <SMILES>  (83) 
c1ccc(cc1)C[C@H](C(=O)N2CCC[C@H]2C(=O)NCc3cc(ccc3Cl)Cl)N

>  <MissingHeavyAtoms>  (83) 
0

>  <Model>  (83) 
1

>  <AltIds>  (83) 


>  <pKI>  (83) 
7.22

>  <ChemblID>  (83) 
CHEMBL3608988

>  <standardized_canonical_smiles>  (83) 
N[C@@H](Cc1ccccc1)C(=O)N1CCC[C@H]1C(=O)NCc1cc(Cl)ccc1Cl

$$$$
5AFZ_UET_H_1248
     RDKit          3D

 36 38  0  0  0  0  0  0  0  0999 V2000
  141.8260  -23.3780   94.5620 O   0  0  0  0  0  0  0  0  0  0  0  0
  142.9850  -22.8000   93.9550 S   0  0  0  0  0  0  0  0  0  0  0  0
  143.9690  -23.6580   93.3670 O   0  0  0  0  0  0  0  0  0  0  0  0
  142.3840  -21.6360   92.7410 C   0  0  0  0  0  0  0  0  0  0  0  0
  141.2060  -22.1720   91.9740 C   0  0  0  0  0  0  0  0  0  0  0  0
  141.3860  -23.0910   90.9550 C   0  0  0  0  0  0  0  0  0  0  0  0
  140.3020  -23.5770   90.2430 C   0  0  0  0  0  0  0  0  0  0  0  0
  139.0270  -23.1490   90.5450 C   0  0  0  0  0  0  0  0  0  0  0  0
  138.8370  -22.2380   91.5590 C   0  0  0  0  0  0  0  0  0  0  0  0
  139.9210  -21.7500   92.2700 C   0  0  0  0  0  0  0  0  0  0  0  0
  143.7340  -21.9420   95.1060 N   0  0  0  0  0  0  0  0  0  0  0  0
  145.0640  -21.3670   94.9310 C   0  0  0  0  0  0  0  0  0  0  0  0
  145.7470  -21.1900   96.2970 C   0  0  0  0  0  0  0  0  0  0  0  0
  147.1060  -20.5430   96.2030 C   0  0  0  0  0  0  0  0  0  0  0  0
  147.3340  -19.2900   96.7490 C   0  0  0  0  0  0  0  0  0  0  0  0
  148.5830  -18.6990   96.6700 C   0  0  0  0  0  0  0  0  0  0  0  0
  149.6220  -19.3540   96.0480 C   0  0  0  0  0  0  0  0  0  0  0  0
  149.4100  -20.6000   95.5020 C   0  0  0  0  0  0  0  0  0  0  0  0
  148.1590  -21.1890   95.5760 C   0  0  0  0  0  0  0  0  0  0  0  0
  144.9860  -20.0260   94.2090 C   0  0  0  0  0  0  0  0  0  0  0  0
  144.1280  -19.2020   94.5200 O   0  0  0  0  0  0  0  0  0  0  0  0
  145.8860  -19.8140   93.2500 N   0  0  0  0  0  0  0  0  0  0  0  0
  145.9040  -18.5820   92.4910 C   0  0  0  0  0  0  0  0  0  0  0  0
  144.6090  -18.3480   91.7360 C   0  0  0  0  0  0  0  0  0  0  0  0
  144.0880  -19.2540   91.0920 O   0  0  0  0  0  0  0  0  0  0  0  0
  144.0830  -17.1290   91.8280 N   0  0  0  0  0  0  0  0  0  0  0  0
  142.8320  -16.7750   91.1710 C   0  0  0  0  0  0  0  0  0  0  0  0
  141.6540  -16.7310   92.1140 C   0  0  0  0  0  0  0  0  0  0  0  0
  141.1420  -17.8970   92.6590 C   0  0  0  0  0  0  0  0  0  0  0  0
  140.0840  -17.8630   93.5490 C   0  0  0  0  0  0  0  0  0  0  0  0
  141.0730  -15.5260   92.4760 C   0  0  0  0  0  0  0  0  0  0  0  0
  140.0170  -15.4840   93.3680 C   0  0  0  0  0  0  0  0  0  0  0  0
  139.5100  -16.6530   93.9230 C   0  0  0  0  0  0  0  0  0  0  0  0
  138.4070  -16.6380   94.9050 C   0  0  0  0  0  0  0  0  0  0  0  0
  138.1070  -15.4750   95.4880 N   0  0  0  0  0  0  0  0  0  0  0  0
  137.7420  -17.7020   95.2310 N   0  0  0  0  0  0  0  0  0  0  0  0
  2  1  2  0
  3  2  2  0
  4  2  1  0
 11  2  1  0
  5  4  1  0
  6  5  2  0
 10  5  1  0
  7  6  1  0
  8  7  2  0
  9  8  1  0
 10  9  2  0
 12 11  1  0
 13 12  1  0
 20 12  1  0
 14 13  1  0
 15 14  2  0
 19 14  1  0
 16 15  1  0
 17 16  2  0
 18 17  1  0
 19 18  2  0
 21 20  2  0
 22 20  1  0
 23 22  1  0
 24 23  1  0
 25 24  2  0
 26 24  1  0
 27 26  1  0
 28 27  1  0
 29 28  2  0
 31 28  1  0
 30 29  1  0
 33 30  2  0
 32 31  2  0
 33 32  1  0
 34 33  1  0
 35 34  1  0
 36 34  2  0
A    1
O3
A    2
S
A    3
O2
A    4
C17
A    5
C18
A    6
C23
A    7
C22
A    8
C21
A    9
C20
A   10
C19
A   11
N4
A   12
C9
A   13
C10
A   14
C11
A   15
C16
A   16
C15
A   17
C14
A   18
C13
A   19
C12
A   20
C8
A   21
O1
A   22
N3
A   23
C7
A   24
C6
A   25
O
A   26
N2
A   27
C5
A   28
C4
A   29
C3
A   30
C2
A   31
C24
A   32
C25
A   33
C1
A   34
C
A   35
N1
A   36
N
M  END
>  <Id>  (84) 
5AFZ_UET_H_1248

>  <ChainId>  (84) 
H

>  <AsymId>  (84) 
F

>  <SeqNum>  (84) 
1248

>  <Name>  (84) 
N-(BENZYLSULFONYL)-D-PHENYLALANYL-N-(4-CARBAMIMIDOYLBENZYL)GLYCINAMIDE

>  <SystematicName>  (84) 
(2R)-N-[2-[(4-carbamimidoylphenyl)methylamino]-2-oxidanylidene-ethyl]-3-phenyl-2-[(phenylmethyl)sulfonylamino]propanamide

>  <Synonyms>  (84) 


>  <Type>  (84) 
NON-POLYMER

>  <Formula>  (84) 
C26 H29 N5 O4 S

>  <ObservedFormula>  (84) 
S C26 N5 O4

>  <MolecularWeight>  (84) 
507.605

>  <ModifiedDate>  (84) 
2015-08-21

>  <Parent>  (84) 


>  <OneLetterCode>  (84) 


>  <SubcomponentList>  (84) 


>  <AmbiguousFlag>  (84) 
N

>  <InsertionCode>  (84) 


>  <InstanceId>  (84) 
5AFZ_UET_H_1248

>  <ChemCompId>  (84) 
UET

>  <PdbId>  (84) 
5AFZ

>  <ResidueNumber>  (84) 
1248

>  <InChI>  (84) 
InChI=1S/C26H29N5O4S/c27-25(28)22-13-11-20(12-14-22)16-29-24(32)17-30-26(33)23(15-19-7-3-1-4-8-19)31-36(34,35)18-21-9-5-2-6-10-21/h1-14,23,31H,15-18H2,(H3,27,28)(H,29,32)(H,30,33)/t23-/m1/s1

>  <InChIKey>  (84) 
BHPZMFXUQRHXSO-HSZRJFAPSA-N

>  <SMILES>  (84) 
c1ccc(cc1)C[C@H](C(=O)NCC(=O)NCc2ccc(cc2)C(=N)N)NS(=O)(=O)Cc3ccccc3

>  <MissingHeavyAtoms>  (84) 
0

>  <Model>  (84) 
1

>  <AltIds>  (84) 


>  <pKI>  (84) 
6.85

>  <ChemblID>  (84) 
CHEMBL3608989

>  <standardized_canonical_smiles>  (84) 
N=C(N)c1ccc(CNC(=O)CNC(=O)[C@@H](Cc2ccccc2)NS(=O)(=O)Cc2ccccc2)cc1

$$$$
5AF9_SJR_H_1250
     RDKit          3D

 17 18  0  0  0  0  0  0  0  0999 V2000
  138.7890  -14.3420   95.6610 C   0  0  0  0  0  0  0  0  0  0  0  0
  139.0770  -20.6200   92.4240 N   0  0  0  0  0  0  0  0  0  0  0  0
  139.5410  -14.6120   94.4930 O   0  0  0  0  0  0  0  0  0  0  0  0
  139.3510  -15.8130   93.8550 C   0  0  0  0  0  0  0  0  0  0  0  0
  139.3920  -22.8750   92.8090 N   0  0  0  0  0  0  0  0  0  0  0  0
  139.3190  -19.4830   90.4640 O   0  0  0  0  0  0  0  0  0  0  0  0
  140.1550  -16.0050   92.7460 C   0  0  0  0  0  0  0  0  0  0  0  0
  140.1160  -17.2150   92.0730 C   0  0  0  0  0  0  0  0  0  0  0  0
  139.2380  -18.2210   92.4730 C   0  0  0  0  0  0  0  0  0  0  0  0
  139.2140  -19.4920   91.6920 C   0  0  0  0  0  0  0  0  0  0  0  0
  138.9830  -21.9380   91.9470 C   0  0  0  0  0  0  0  0  0  0  0  0
  138.5130  -22.2390   90.6620 C   0  0  0  0  0  0  0  0  0  0  0  0
  138.4830  -23.5710   90.2800 C   0  0  0  0  0  0  0  0  0  0  0  0
  138.9040  -24.5440   91.1540 C   0  0  0  0  0  0  0  0  0  0  0  0
  139.3480  -24.1530   92.3990 C   0  0  0  0  0  0  0  0  0  0  0  0
  138.4080  -18.0020   93.5690 C   0  0  0  0  0  0  0  0  0  0  0  0
  138.4670  -16.8050   94.2630 C   0  0  0  0  0  0  0  0  0  0  0  0
  3  1  1  0
 10  2  1  0
 11  2  1  0
  4  3  1  0
  7  4  2  0
 17  4  1  0
 11  5  2  0
 15  5  1  0
 10  6  2  0
  8  7  1  0
  9  8  2  0
 10  9  1  0
 16  9  1  0
 12 11  1  0
 13 12  2  0
 14 13  1  0
 15 14  2  0
 17 16  2  0
A    1
C
A    2
N
A    3
O
A    4
C1
A    5
N1
A    6
O1
A    7
C2
A    8
C3
A    9
C4
A   10
C5
A   11
C6
A   12
C7
A   13
C8
A   14
C9
A   15
C10
A   16
C11
A   17
C12
M  END
>  <Id>  (85) 
5AF9_SJR_H_1250

>  <ChainId>  (85) 
H

>  <AsymId>  (85) 
I

>  <SeqNum>  (85) 
1250

>  <Name>  (85) 
4-methoxy-N-(pyridin-2-yl)benzamide

>  <SystematicName>  (85) 
4-methoxy-N-pyridin-2-yl-benzamide

>  <Synonyms>  (85) 


>  <Type>  (85) 
NON-POLYMER

>  <Formula>  (85) 
C13 H12 N2 O2

>  <ObservedFormula>  (85) 
C13 N2 O2

>  <MolecularWeight>  (85) 
228.247

>  <ModifiedDate>  (85) 
2015-08-21

>  <Parent>  (85) 


>  <OneLetterCode>  (85) 


>  <SubcomponentList>  (85) 


>  <AmbiguousFlag>  (85) 
N

>  <InsertionCode>  (85) 


>  <InstanceId>  (85) 
5AF9_SJR_H_1250

>  <ChemCompId>  (85) 
SJR

>  <PdbId>  (85) 
5AF9

>  <ResidueNumber>  (85) 
1250

>  <InChI>  (85) 
InChI=1S/C13H12N2O2/c1-17-11-7-5-10(6-8-11)13(16)15-12-4-2-3-9-14-12/h2-9H,1H3,(H,14,15,16)

>  <InChIKey>  (85) 
YFXWAMDABVLKSA-UHFFFAOYSA-N

>  <SMILES>  (85) 
COc1ccc(cc1)C(=O)Nc2ccccn2

>  <MissingHeavyAtoms>  (85) 
0

>  <Model>  (85) 
1

>  <AltIds>  (85) 


>  <pKI>  (85) 
2.61

>  <ChemblID>  (85) 
CHEMBL1571193

>  <standardized_canonical_smiles>  (85) 
COc1ccc(C(=O)Nc2ccccn2)cc1

$$$$
4UD9_FQI_H_1257
     RDKit          3D

  9  9  0  0  0  0  0  0  0  0999 V2000
  126.3490  -10.3320  166.4450 Cl  0  0  0  0  0  0  0  0  0  0  0  0
  125.9800  -11.7850  165.6260 C   0  0  0  0  0  0  0  0  0  0  0  0
  125.0300  -13.7830  165.0770 C   0  0  0  0  0  0  0  0  0  0  0  0
  126.1890  -14.5720  162.9690 C   0  0  0  0  0  0  0  0  0  0  0  0
  126.8340  -14.1650  161.9930 O   0  0  0  0  0  0  0  0  0  0  0  0
  125.7080  -15.8060  163.0780 N   0  0  0  0  0  0  0  0  0  0  0  0
  125.9290  -13.6620  164.0480 C   0  0  0  0  0  0  0  0  0  0  0  0
  125.0570  -12.7080  165.9810 C   0  0  0  0  0  0  0  0  0  0  0  0
  126.8220  -12.1810  164.1850 S   0  0  0  0  0  0  0  0  0  0  0  0
  2  1  1  0
  8  2  2  0
  9  2  1  0
  7  3  2  0
  8  3  1  0
  5  4  2  0
  6  4  1  0
  7  4  1  0
  9  7  1  0
A    1
CL
A    2
C4
A    3
C2
A    4
C
A    5
O
A    6
N
A    7
C1
A    8
C3
A    9
S
M  END
>  <Id>  (86) 
4UD9_FQI_H_1257

>  <ChainId>  (86) 
H

>  <AsymId>  (86) 
N

>  <SeqNum>  (86) 
1257

>  <Name>  (86) 
5-CHLORO-2-THIOPHENECARBOXAMIDE

>  <SystematicName>  (86) 
5-chloranylthiophene-2-carboxamide

>  <Synonyms>  (86) 


>  <Type>  (86) 
non-polymer

>  <Formula>  (86) 
C5 H4 Cl N O S

>  <ObservedFormula>  (86) 
C5 S Cl N O

>  <MolecularWeight>  (86) 
161.609

>  <ModifiedDate>  (86) 
2015-08-21

>  <Parent>  (86) 


>  <OneLetterCode>  (86) 


>  <SubcomponentList>  (86) 


>  <AmbiguousFlag>  (86) 
N

>  <InsertionCode>  (86) 


>  <InstanceId>  (86) 
4UD9_FQI_H_1257

>  <ChemCompId>  (86) 
FQI

>  <PdbId>  (86) 
4UD9

>  <ResidueNumber>  (86) 
1257

>  <InChI>  (86) 
InChI=1S/C5H4ClNOS/c6-4-2-1-3(9-4)5(7)8/h1-2H,(H2,7,8)

>  <InChIKey>  (86) 
OMOBWMBJNNCUFO-UHFFFAOYSA-N

>  <SMILES>  (86) 
c1cc(sc1C(=O)N)Cl

>  <MissingHeavyAtoms>  (86) 
0

>  <Model>  (86) 
1

>  <AltIds>  (86) 


>  <pKI>  (86) 
3.37

>  <ChemblID>  (86) 
CHEMBL3608990

>  <standardized_canonical_smiles>  (86) 
NC(=O)c1ccc(Cl)s1

$$$$
2CF8_ESH_H_1246
     RDKit          3D

 32 36  0  0  0  0  0  0  0  0999 V2000
   11.2130   -9.7810   24.4970 N   0  0  0  0  0  0  0  0  0  0  0  0
   11.4690  -10.9100   23.8580 C   0  0  0  0  0  0  0  0  0  0  0  0
   10.6980  -11.9810   24.1280 N   0  0  0  0  0  0  0  0  0  0  0  0
   12.5830  -11.0070   22.8770 C   0  0  0  0  0  0  0  0  0  0  0  0
   13.4160   -9.9420   22.5970 C   0  0  0  0  0  0  0  0  0  0  0  0
   14.4290  -10.0250   21.6580 C   0  0  0  0  0  0  0  0  0  0  0  0
   14.6840  -11.2280   20.9870 C   0  0  0  0  0  0  0  0  0  0  0  0
   13.8310  -12.3010   21.2550 C   0  0  0  0  0  0  0  0  0  0  0  0
   12.8080  -12.2040   22.1780 C   0  0  0  0  0  0  0  0  0  0  0  0
   15.7930  -11.3010   19.9910 C   0  0  0  0  0  0  0  0  0  0  0  0
   15.6460  -12.3720   18.9700 N   0  0  0  0  0  0  0  0  0  0  0  0
   14.6030  -12.0510   17.9510 C   0  0  0  0  0  0  0  0  0  0  0  0
   15.3280  -11.7040   16.6590 C   0  0  0  0  0  0  0  0  0  0  0  0
   16.8160  -11.6110   16.9890 C   0  0  0  0  0  0  0  0  0  0  0  0
   16.9400  -12.4380   18.2670 C   0  0  0  0  0  0  0  0  0  0  0  0
   17.9750  -12.0190   19.3000 C   0  0  0  0  0  0  0  0  0  0  0  0
   18.9400  -13.1390   19.7350 C   0  0  0  0  0  0  0  0  0  0  0  0
   18.5180  -13.4530   21.0880 N   0  0  0  0  0  0  0  0  0  0  0  0
   17.3940  -12.6890   21.5140 C   0  0  0  0  0  0  0  0  0  0  0  0
   16.8000  -12.9240   22.5220 O   0  0  0  0  0  0  0  0  0  0  0  0
   17.2010  -11.5700   20.5300 C   0  0  0  0  0  0  0  0  0  0  0  0
   18.7170  -14.8000   21.6700 C   0  0  0  0  0  0  0  0  0  0  0  0
   19.7090  -14.5870   22.8080 C   0  0  0  0  0  0  0  0  0  0  0  0
   19.2720  -14.2150   24.0600 C   0  0  0  0  0  0  0  0  0  0  0  0
   20.1440  -13.9810   25.1150 C   0  0  0  0  0  0  0  0  0  0  0  0
   21.5010  -14.1390   24.8870 C   0  0  0  0  0  0  0  0  0  0  0  0
   21.9750  -14.5130   23.6410 C   0  0  0  0  0  0  0  0  0  0  0  0
   21.0810  -14.7340   22.5960 C   0  0  0  0  0  0  0  0  0  0  0  0
   20.4070  -12.6960   19.7520 C   0  0  0  0  0  0  0  0  0  0  0  0
   20.6950  -11.5250   20.6910 C   0  0  0  0  0  0  0  0  0  0  0  0
   20.8590  -12.4130   18.3410 C   0  0  0  0  0  0  0  0  0  0  0  0
   22.6480  -13.8830   26.2230 Cl  0  0  0  0  0  0  0  0  0  0  0  0
  2  1  2  0
  3  2  1  0
  4  2  1  0
  5  4  2  0
  9  4  1  0
  6  5  1  0
  7  6  2  0
  8  7  1  0
 10  7  1  0
  9  8  2  0
 11 10  1  0
 21 10  1  0
 12 11  1  0
 15 11  1  0
 13 12  1  0
 14 13  1  0
 15 14  1  0
 16 15  1  0
 17 16  1  0
 21 16  1  0
 18 17  1  0
 29 17  1  0
 19 18  1  0
 22 18  1  0
 20 19  2  0
 21 19  1  0
 23 22  1  0
 24 23  2  0
 28 23  1  0
 25 24  1  0
 26 25  2  0
 27 26  1  0
 32 26  1  0
 28 27  2  0
 30 29  1  0
 31 29  1  0
A    1
N1
A    2
C3
A    3
N2
A    4
C4
A    5
C9
A    6
C8
A    7
C7
A    8
C6
A    9
C5
A   10
C10
A   11
N11
A   12
C12
A   13
C13
A   14
C14
A   15
C15
A   16
C16
A   17
C17
A   18
N19
A   19
C20
A   20
O21
A   21
C22
A   22
C23
A   23
C24
A   24
C32
A   25
C31
A   26
C30
A   27
C26
A   28
C25
A   29
C18
A   30
C41
A   31
C42
A   32
CL30
M  END
>  <Id>  (87) 
2CF8_ESH_H_1246

>  <ChainId>  (87) 
H

>  <AsymId>  (87) 
D

>  <SeqNum>  (87) 
1246

>  <Name>  (87) 
4- [(1R,3AS,4R,8AS,8BR)- 2- (4-CHLOROBENZYL)- 1- ISOPROPYL- 3- OXODECAHYDROPYRROLO[3,4- A]PYRROLIZIN- 4- YL]BENZENECARBOXIMIDAMIDE

>  <SystematicName>  (87) 
4-[(1R,3aS,4R,5S,8aS,8bR)-2-[(4-chlorophenyl)methyl]-3-oxo-1-propan-2-yl-1,3a,4,6,7,8,8a,8b-octahydropyrrolo[4,3-a]pyrrolizin-4-yl]benzenecarboximidamide

>  <Synonyms>  (87) 


>  <Type>  (87) 
NON-POLYMER

>  <Formula>  (87) 
C26 H31 Cl N4 O

>  <ObservedFormula>  (87) 
C26 Cl N4 O

>  <MolecularWeight>  (87) 
451.004

>  <ModifiedDate>  (87) 
2011-06-04

>  <Parent>  (87) 


>  <OneLetterCode>  (87) 


>  <SubcomponentList>  (87) 


>  <AmbiguousFlag>  (87) 
N

>  <InsertionCode>  (87) 


>  <InstanceId>  (87) 
2CF8_ESH_H_1246

>  <ChemCompId>  (87) 
ESH

>  <PdbId>  (87) 
2CF8

>  <ResidueNumber>  (87) 
1246

>  <InChI>  (87) 
InChI=1S/C26H31ClN4O/c1-15(2)23-21-20-4-3-13-30(20)24(17-7-9-18(10-8-17)25(28)29)22(21)26(32)31(23)14-16-5-11-19(27)12-6-16/h5-12,15,20-24H,3-4,13-14H2,1-2H3,(H3,28,29)/t20-,21-,22-,23+,24-/m0/s1

>  <InChIKey>  (87) 
LVAIBFBNGXNDPW-NLPWIYRPSA-N

>  <SMILES>  (87) 
[H]/N=C(\c1ccc(cc1)[C@H]2[C@@H]3[C@H]([C@H]4[N@@]2CCC4)[C@H](N(C3=O)Cc5ccc(cc5)Cl)C(C)C)/N

>  <MissingHeavyAtoms>  (87) 
0

>  <Model>  (87) 
1

>  <AltIds>  (87) 


>  <pKI>  (87) 
8.1

>  <ChemblID>  (87) 
CHEMBL3632875

>  <standardized_canonical_smiles>  (87) 
CC(C)[C@@H]1[C@H]2C3CCCN3[C@@H](c3ccc(C(=N)N)cc3)[C@H]2C(=O)N1Cc1ccc(Cl)cc1

$$$$
2CF9_348_H_1247
     RDKit          3D

 33 37  0  0  0  0  0  0  0  0999 V2000
   10.5790  -12.1500   24.1350 N   0  0  0  0  0  0  0  0  0  0  0  0
   11.3620  -11.0830   23.9360 C   0  0  0  0  0  0  0  0  0  0  0  0
   11.1250   -9.9770   24.6150 N   0  0  0  0  0  0  0  0  0  0  0  0
   12.4910  -11.1410   22.9380 C   0  0  0  0  0  0  0  0  0  0  0  0
   12.7220  -12.3240   22.2230 C   0  0  0  0  0  0  0  0  0  0  0  0
   13.7750  -12.3820   21.3020 C   0  0  0  0  0  0  0  0  0  0  0  0
   14.6080  -11.2840   21.0810 C   0  0  0  0  0  0  0  0  0  0  0  0
   14.3670  -10.1020   21.7950 C   0  0  0  0  0  0  0  0  0  0  0  0
   13.3120  -10.0380   22.7160 C   0  0  0  0  0  0  0  0  0  0  0  0
   15.7330  -11.3330   20.0920 C   0  0  0  0  0  0  0  0  0  0  0  0
   15.5650  -12.3140   18.9750 N   0  0  0  0  0  0  0  0  0  0  0  0
   14.6770  -11.7870   17.9140 C   0  0  0  0  0  0  0  0  0  0  0  0
   15.4920  -11.7650   16.6130 C   0  0  0  0  0  0  0  0  0  0  0  0
   16.9550  -11.8290   17.0430 C   0  0  0  0  0  0  0  0  0  0  0  0
   16.9100  -12.5340   18.3950 C   0  0  0  0  0  0  0  0  0  0  0  0
   17.9300  -12.0660   19.4320 C   0  0  0  0  0  0  0  0  0  0  0  0
   18.8760  -13.2080   19.8450 C   0  0  0  0  0  0  0  0  0  0  0  0
   18.2860  -13.6200   21.1420 N   0  0  0  0  0  0  0  0  0  0  0  0
   17.3080  -12.8160   21.5770 C   0  0  0  0  0  0  0  0  0  0  0  0
   16.6680  -13.0300   22.5990 O   0  0  0  0  0  0  0  0  0  0  0  0
   17.1340  -11.6350   20.6620 C   0  0  0  0  0  0  0  0  0  0  0  0
   18.7650  -14.8600   21.7930 C   0  0  0  0  0  0  0  0  0  0  0  0
   19.6430  -14.5080   22.9820 C   0  0  0  0  0  0  0  0  0  0  0  0
   21.0250  -14.3920   22.8230 C   0  0  0  0  0  0  0  0  0  0  0  0
   21.8500  -14.0390   23.8980 C   0  0  0  0  0  0  0  0  0  0  0  0
   21.2810  -13.7970   25.1490 C   0  0  0  0  0  0  0  0  0  0  0  0
   22.0800  -13.4510   26.2110 O   0  0  0  0  0  0  0  0  0  0  0  0
   21.6130  -12.5490   27.2220 C   0  0  0  0  0  0  0  0  0  0  0  0
   19.8990  -13.9220   25.3160 C   0  0  0  0  0  0  0  0  0  0  0  0
   19.0790  -14.2710   24.2430 C   0  0  0  0  0  0  0  0  0  0  0  0
   20.3550  -12.7350   19.9340 C   0  0  0  0  0  0  0  0  0  0  0  0
   21.0120  -12.4660   18.5790 C   0  0  0  0  0  0  0  0  0  0  0  0
   20.6080  -11.5310   20.8420 C   0  0  0  0  0  0  0  0  0  0  0  0
  2  1  1  0
  3  2  2  0
  4  2  1  0
  5  4  2  0
  9  4  1  0
  6  5  1  0
  7  6  2  0
  8  7  1  0
 10  7  1  0
  9  8  2  0
 11 10  1  0
 21 10  1  0
 12 11  1  0
 15 11  1  0
 13 12  1  0
 14 13  1  0
 15 14  1  0
 16 15  1  0
 17 16  1  0
 21 16  1  0
 18 17  1  0
 31 17  1  0
 19 18  1  0
 22 18  1  0
 20 19  2  0
 21 19  1  0
 23 22  1  0
 24 23  2  0
 30 23  1  0
 25 24  1  0
 26 25  2  0
 27 26  1  0
 29 26  1  0
 28 27  1  0
 30 29  2  0
 32 31  1  0
 33 31  1  0
A    1
N1
A    2
C3
A    3
N2
A    4
C4
A    5
C9
A    6
C8
A    7
C7
A    8
C6
A    9
C5
A   10
C10
A   11
N11
A   12
C12
A   13
C13
A   14
C14
A   15
C15
A   16
C16
A   17
C17
A   18
N19
A   19
C20
A   20
O21
A   21
C22
A   22
C23
A   23
C24
A   24
C32
A   25
C31
A   26
C30
A   27
O29
A   28
C28
A   29
C26
A   30
C25
A   31
C18
A   32
C41
A   33
C42
M  END
>  <Id>  (88) 
2CF9_348_H_1247

>  <ChainId>  (88) 
H

>  <AsymId>  (88) 
D

>  <SeqNum>  (88) 
1247

>  <Name>  (88) 
4-[(1R,3AS,4R,8AS,8BR)-1-ISOPROPYL-2-(4-METHOXYBENZYL)-3-OXODECAHYDROPYRROLO[3,4-A]PYRROLIZIN-4-YL]BENZENECARBOXIMIDAMIDE

>  <SystematicName>  (88) 
4-[(1R,3aS,4R,5S,8aS,8bR)-2-[(4-methoxyphenyl)methyl]-3-oxo-1-propan-2-yl-1,3a,4,6,7,8,8a,8b-octahydropyrrolo[4,3-a]pyrrolizin-4-yl]benzenecarboximidamide

>  <Synonyms>  (88) 


>  <Type>  (88) 
NON-POLYMER

>  <Formula>  (88) 
C27 H34 N4 O2

>  <ObservedFormula>  (88) 
C27 N4 O2

>  <MolecularWeight>  (88) 
446.584

>  <ModifiedDate>  (88) 
2011-06-04

>  <Parent>  (88) 


>  <OneLetterCode>  (88) 


>  <SubcomponentList>  (88) 


>  <AmbiguousFlag>  (88) 
N

>  <InsertionCode>  (88) 


>  <InstanceId>  (88) 
2CF9_348_H_1247

>  <ChemCompId>  (88) 
348

>  <PdbId>  (88) 
2CF9

>  <ResidueNumber>  (88) 
1247

>  <InChI>  (88) 
InChI=1S/C27H34N4O2/c1-16(2)24-22-21-5-4-14-30(21)25(18-8-10-19(11-9-18)26(28)29)23(22)27(32)31(24)15-17-6-12-20(33-3)13-7-17/h6-13,16,21-25H,4-5,14-15H2,1-3H3,(H3,28,29)/t21-,22-,23-,24+,25-/m0/s1

>  <InChIKey>  (88) 
XETNTDPUFDNJKX-BDUWWWMKSA-N

>  <SMILES>  (88) 
[H]/N=C(\c1ccc(cc1)[C@H]2[C@@H]3[C@H]([C@H]4[N@@]2CCC4)[C@H](N(C3=O)Cc5ccc(cc5)OC)C(C)C)/N

>  <MissingHeavyAtoms>  (88) 
0

>  <Model>  (88) 
1

>  <AltIds>  (88) 


>  <pKI>  (88) 
7.82

>  <ChemblID>  (88) 
CHEMBL3632876

>  <standardized_canonical_smiles>  (88) 
COc1ccc(CN2C(=O)[C@H]3[C@H](C4CCCN4[C@H]3c3ccc(C(=N)N)cc3)[C@H]2C(C)C)cc1

$$$$
4YES_45S_B_704
     RDKit          3D

 26 28  0  0  0  0  0  0  0  0999 V2000
    4.2200   19.8170   49.5520 C   0  0  0  0  0  0  0  0  0  0  0  0
    3.4920   18.9290   48.6850 C   0  0  0  0  0  0  0  0  0  0  0  0
    5.3360   20.1470   49.1810 O   0  0  0  0  0  0  0  0  0  0  0  0
    2.1650   18.5500   48.6220 C   0  0  0  0  0  0  0  0  0  0  0  0
    2.0160   17.6620   47.5280 C   0  0  0  0  0  0  0  0  0  0  0  0
    3.2540   17.5410   46.9350 C   0  0  0  0  0  0  0  0  0  0  0  0
    4.1280   18.3050   47.6530 N   0  0  0  0  0  0  0  0  0  0  0  0
    3.7120   16.7670   45.7770 C   0  0  0  0  0  0  0  0  0  0  0  0
    3.6510   20.2560   50.7350 N   0  0  0  0  0  0  0  0  0  0  0  0
    4.1950   21.3560   51.5060 C   0  0  0  0  0  0  0  0  0  0  0  0
    5.6950   21.2390   51.5730 C   0  0  0  0  0  0  0  0  0  0  0  0
    6.2950   20.2290   51.9240 O   0  0  0  0  0  0  0  0  0  0  0  0
    3.5800   21.1610   52.8730 C   0  0  0  0  0  0  0  0  0  0  0  0
    2.2260   20.5490   52.5860 C   0  0  0  0  0  0  0  0  0  0  0  0
    2.4850   19.6830   51.3790 C   0  0  0  0  0  0  0  0  0  0  0  0
    6.3120   22.4000   51.1470 N   0  0  0  0  0  0  0  0  0  0  0  0
    7.7430   22.5270   51.2630 C   0  0  0  0  0  0  0  0  0  0  0  0
    8.4980   22.5280   49.9720 C   0  0  0  0  0  0  0  0  0  0  0  0
    9.1980   21.4230   49.5200 C   0  0  0  0  0  0  0  0  0  0  0  0
    9.2060   20.1300   50.2780 C   0  0  0  0  0  0  0  0  0  0  0  0
    8.2080   19.1800   49.7090 N   0  0  0  0  0  0  0  0  0  0  0  0
    9.9240   21.4610   48.3480 C   0  0  0  0  0  0  0  0  0  0  0  0
    9.9720   22.6340   47.6080 C   0  0  0  0  0  0  0  0  0  0  0  0
    9.2500   23.7270   48.0400 C   0  0  0  0  0  0  0  0  0  0  0  0
    9.2710   25.1700   47.0540 Cl  0  0  0  0  0  0  0  0  0  0  0  0
    8.5290   23.6900   49.2160 C   0  0  0  0  0  0  0  0  0  0  0  0
  2  1  1  0
  3  1  2  0
  9  1  1  0
  4  2  2  0
  7  2  1  0
  5  4  1  0
  6  5  2  0
  7  6  1  0
  8  6  1  0
 10  9  1  0
 15  9  1  0
 11 10  1  0
 13 10  1  0
 12 11  2  0
 16 11  1  0
 14 13  1  0
 15 14  1  0
 17 16  1  0
 18 17  1  0
 19 18  2  0
 26 18  1  0
 20 19  1  0
 22 19  1  0
 21 20  1  0
 23 22  2  0
 24 23  1  0
 25 24  1  0
 26 24  2  0
A    1
C10
A    2
C12
A    3
O11
A    4
C22
A    5
C23
A    6
C24
A    7
N25
A    8
C26
A    9
N3
A   10
C4
A   11
C6
A   12
O8
A   13
C5
A   14
C1
A   15
C2
A   16
N7
A   17
C9
A   18
C13
A   19
C14
A   20
C20
A   21
N21
A   22
C15
A   23
C16
A   24
C17
A   25
CL
A   26
C18
M  END
>  <Id>  (89) 
4YES_45S_B_704

>  <ChainId>  (89) 
B

>  <AsymId>  (89) 
G

>  <SeqNum>  (89) 
704

>  <Name>  (89) 
N-[2-(aminomethyl)-5-chlorobenzyl]-1-[(5-methyl-1H-pyrrol-2-yl)carbonyl]-L-prolinamide

>  <SystematicName>  (89) 
(2S)-N-[[2-(aminomethyl)-5-chloranyl-phenyl]methyl]-1-[(5-methyl-1H-pyrrol-2-yl)carbonyl]pyrrolidine-2-carboxamide

>  <Synonyms>  (89) 


>  <Type>  (89) 
NON-POLYMER

>  <Formula>  (89) 
C19 H23 Cl N4 O2

>  <ObservedFormula>  (89) 
C19 Cl N4 O2

>  <MolecularWeight>  (89) 
374.865

>  <ModifiedDate>  (89) 
2015-06-12

>  <Parent>  (89) 


>  <OneLetterCode>  (89) 


>  <SubcomponentList>  (89) 
5M1 PRO 00T

>  <AmbiguousFlag>  (89) 
N

>  <InsertionCode>  (89) 


>  <InstanceId>  (89) 
4YES_45S_B_704

>  <ChemCompId>  (89) 
45S

>  <PdbId>  (89) 
4YES

>  <ResidueNumber>  (89) 
704

>  <InChI>  (89) 
InChI=1S/C19H23ClN4O2/c1-12-4-7-16(23-12)19(26)24-8-2-3-17(24)18(25)22-11-14-9-15(20)6-5-13(14)10-21/h4-7,9,17,23H,2-3,8,10-11,21H2,1H3,(H,22,25)/t17-/m0/s1

>  <InChIKey>  (89) 
BBKKBBGFERPRGT-KRWDZBQOSA-N

>  <SMILES>  (89) 
Cc1ccc([nH]1)C(=O)N2CCC[C@H]2C(=O)NCc3cc(ccc3CN)Cl

>  <MissingHeavyAtoms>  (89) 
0

>  <Model>  (89) 
1

>  <AltIds>  (89) 


>  <pKI>  (89) 
8.02

>  <ChemblID>  (89) 
-

>  <standardized_canonical_smiles>  (89) 
Cc1ccc(C(=O)N2CCC[C@H]2C(=O)NCc2cc(Cl)ccc2CN)[nH]1

$$$$
1MU8_CDB_B_248
     RDKit          3D

 32 34  0  0  0  0  0  0  0  0999 V2000
   21.1780  -16.7010   25.4070 N   0  0  0  0  0  0  0  0  0  0  0  0
   20.0330  -16.0520   25.9220 C   0  0  0  0  0  0  0  0  0  0  0  0
   20.0650  -14.6260   26.2280 C   0  0  0  0  0  0  0  0  0  0  0  0
   21.3150  -13.9430   25.9570 C   0  0  0  0  0  0  0  0  0  0  0  0
   22.4530  -14.6530   25.3870 C   0  0  0  0  0  0  0  0  0  0  0  0
   22.3790  -16.0760   25.1120 C   0  0  0  0  0  0  0  0  0  0  0  0
   18.7470  -16.8750   26.0440 C   0  0  0  0  0  0  0  0  0  0  0  0
   18.1550  -17.2280   24.6820 C   0  0  0  0  0  0  0  0  0  0  0  0
   17.7800  -16.2900   26.7950 F   0  0  0  0  0  0  0  0  0  0  0  0
   19.0610  -18.0500   26.6110 F   0  0  0  0  0  0  0  0  0  0  0  0
   17.5530  -16.0680   23.9960 N   0  0  0  0  0  0  0  0  0  0  0  0
   18.1460  -15.3600   22.9720 C   0  0  0  0  0  0  0  0  0  0  0  0
   17.4540  -14.1250   22.4830 C   0  0  0  0  0  0  0  0  0  0  0  0
   18.1050  -13.4120   21.4820 N   0  0  0  0  0  0  0  0  0  0  0  0
   19.3510  -13.8850   20.9220 C   0  0  0  0  0  0  0  0  0  0  0  0
   19.9300  -15.0650   21.4330 C   0  0  0  0  0  0  0  0  0  0  0  0
   19.3360  -15.7330   22.4270 N   0  0  0  0  0  0  0  0  0  0  0  0
   16.3690  -13.7490   22.9310 O   0  0  0  0  0  0  0  0  0  0  0  0
   20.0650  -13.1800   19.8330 C   0  0  0  0  0  0  0  0  0  0  0  0
   17.4600  -12.1780   20.9700 C   0  0  0  0  0  0  0  0  0  0  0  0
   16.0350  -12.4860   20.5320 C   0  0  0  0  0  0  0  0  0  0  0  0
   15.0910  -11.5730   20.9010 N   0  0  0  0  0  0  0  0  0  0  0  0
   15.7950  -13.4930   19.8760 O   0  0  0  0  0  0  0  0  0  0  0  0
   13.6630  -11.7940   20.5840 C   0  0  0  0  0  0  0  0  0  0  0  0
   12.7380  -11.6840   21.7980 C   0  0  0  0  0  0  0  0  0  0  0  0
   12.8360  -10.5670   22.6690 C   0  0  0  0  0  0  0  0  0  0  0  0
   11.9870  -10.4830   23.8270 C   0  0  0  0  0  0  0  0  0  0  0  0
   11.0360  -11.5280   24.1130 C   0  0  0  0  0  0  0  0  0  0  0  0
   11.8020  -12.6630   22.0970 N   0  0  0  0  0  0  0  0  0  0  0  0
   13.7300   -9.6110   22.3840 F   0  0  0  0  0  0  0  0  0  0  0  0
   10.9610  -12.6350   23.1990 C   0  0  0  0  0  0  0  0  0  0  0  0
   12.0660   -9.3140   24.7450 C   0  0  0  0  0  0  0  0  0  0  0  0
  2  1  2  0
  6  1  1  0
  3  2  1  0
  7  2  1  0
  4  3  2  0
  5  4  1  0
  6  5  2  0
  8  7  1  0
  9  7  1  0
 10  7  1  0
 11  8  1  0
 12 11  1  0
 13 12  1  0
 17 12  2  0
 14 13  1  0
 18 13  2  0
 15 14  1  0
 20 14  1  0
 16 15  2  0
 19 15  1  0
 17 16  1  0
 21 20  1  0
 22 21  1  0
 23 21  2  0
 24 22  1  0
 25 24  1  0
 26 25  2  0
 29 25  1  0
 27 26  1  0
 30 26  1  0
 28 27  2  0
 32 27  1  0
 31 28  1  0
 31 29  2  0
M  CHG  2   1   1  17   1
A    1
N1
A    2
C2
A    3
C3
A    4
C4
A    5
C5
A    6
C6
A    7
C11
A    8
C12
A    9
F13
A   10
F1
A   11
N18
A   12
C21
A   13
C22
A   14
N23
A   15
C24
A   16
C25
A   17
N26
A   18
O28
A   19
C29
A   20
C33
A   21
C34
A   22
N37
A   23
O38
A   24
C39
A   25
C40
A   26
C43
A   27
C44
A   28
C45
A   29
N46
A   30
F47
A   31
C50
A   32
C1
M  END
>  <Id>  (90) 
1MU8_CDB_B_248

>  <ChainId>  (90) 
B

>  <AsymId>  (90) 
D

>  <SeqNum>  (90) 
248

>  <Name>  (90) 
2-(6-CHLORO-3-{[2,2-DIFLUORO-2-(2-PYRIDINYL)ETHYL]AMINO}-2-OXO-1(2H)-PYRAZINYL)-N-[(2-FLUORO-3-METHYL-6-PYRIDINYL)METHYL]ACETAMIDE

>  <SystematicName>  (90) 
2-[3-[(2,2-difluoro-2-pyridin-1-ium-2-yl-ethyl)amino]-6-methyl-2-oxo-pyrazin-4-ium-1-yl]-N-[(3-fluoro-4-methyl-pyridin-2-yl)methyl]ethanamide

>  <Synonyms>  (90) 


>  <Type>  (90) 
NON-POLYMER

>  <Formula>  (90) 
C21 H23 F3 N6 O2

>  <ObservedFormula>  (90) 
C21 F3 N6 O2

>  <MolecularWeight>  (90) 
448.442

>  <ModifiedDate>  (90) 
2011-06-04

>  <Parent>  (90) 


>  <OneLetterCode>  (90) 


>  <SubcomponentList>  (90) 


>  <AmbiguousFlag>  (90) 
N

>  <InsertionCode>  (90) 


>  <InstanceId>  (90) 
1MU8_CDB_B_248

>  <ChemCompId>  (90) 
CDB

>  <PdbId>  (90) 
1MU8

>  <ResidueNumber>  (90) 
248

>  <InChI>  (90) 
InChI=1S/C21H21F3N6O2/c1-13-6-8-25-15(18(13)22)10-27-17(31)11-30-14(2)9-28-19(20(30)32)29-12-21(23,24)16-5-3-4-7-26-16/h3-9H,10-12H2,1-2H3,(H,27,31)(H,28,29)/p+2

>  <InChIKey>  (90) 
WOYBPRBUPLYTPY-UHFFFAOYSA-P

>  <SMILES>  (90) 
Cc1ccnc(c1F)CNC(=O)CN2C(=C[NH+]=C(C2=O)NCC(c3cccc[nH+]3)(F)F)C

>  <MissingHeavyAtoms>  (90) 
0

>  <Model>  (90) 
1

>  <AltIds>  (90) 


>  <pKI>  (90) 
9.0

>  <ChemblID>  (90) 
-

>  <standardized_canonical_smiles>  (90) 
Cc1ccnc(CNC(=O)Cn2c(C)c[nH+]c(NCC(F)(F)c3cccc[nH+]3)c2=O)c1F

$$$$
1DWC_MIT_H_1
     RDKit          3D

 35 37  0  0  0  0  0  0  0  0999 V2000
   28.7520   13.5130   25.6380 S   0  0  0  0  0  0  0  0  0  0  0  0
   28.5540   13.6490   27.0570 O   0  0  0  0  0  0  0  0  0  0  0  0
   27.6690   13.3990   24.6800 O   0  0  0  0  0  0  0  0  0  0  0  0
   31.7960   11.7570   28.2400 C   0  0  0  0  0  0  0  0  0  0  0  0
   32.8640   10.9560   27.6000 C   0  0  0  0  0  0  0  0  0  0  0  0
   32.2630    9.8270   26.8440 C   0  0  0  0  0  0  0  0  0  0  0  0
   31.3110   10.3570   25.8650 C   0  0  0  0  0  0  0  0  0  0  0  0
   31.0580    9.6760   24.6800 C   0  0  0  0  0  0  0  0  0  0  0  0
   30.1090   10.2040   23.8000 C   0  0  0  0  0  0  0  0  0  0  0  0
   29.3790   11.3580   24.1210 C   0  0  0  0  0  0  0  0  0  0  0  0
   29.5620   11.9600   25.3330 C   0  0  0  0  0  0  0  0  0  0  0  0
   30.5960   11.5460   26.2180 C   0  0  0  0  0  0  0  0  0  0  0  0
   33.7940   10.4240   28.6730 C   0  0  0  0  0  0  0  0  0  0  0  0
   30.8260   12.2470   27.3000 N   0  0  0  0  0  0  0  0  0  0  0  0
   29.7320   14.8200   25.1830 N   0  0  0  0  0  0  0  0  0  0  0  0
   30.4930   14.8340   23.9360 C   0  0  0  0  0  0  0  0  0  0  0  0
   31.8340   14.1520   24.1210 C   0  0  0  0  0  0  0  0  0  0  0  0
   32.5200   14.2960   25.1110 O   0  0  0  0  0  0  0  0  0  0  0  0
   30.7090   16.2410   23.4460 C   0  0  0  0  0  0  0  0  0  0  0  0
   30.9130   17.1700   24.5960 C   0  0  0  0  0  0  0  0  0  0  0  0
   31.3610   18.5140   24.0090 C   0  0  0  0  0  0  0  0  0  0  0  0
   31.5800   19.5010   25.0670 N   0  0  0  0  0  0  0  0  0  0  0  0
   32.8380   19.8780   25.3590 C   0  0  0  0  0  0  0  0  0  0  0  0
   33.8690   19.3020   24.6870 N   0  0  0  0  0  0  0  0  0  0  0  0
   33.0480   20.7010   26.4060 N   0  0  0  0  0  0  0  0  0  0  0  0
   32.3370   13.5310   23.0090 N   0  0  0  0  0  0  0  0  0  0  0  0
   31.6320   13.5940   21.7350 C   0  0  0  0  0  0  0  0  0  0  0  0
   31.5630   12.2080   21.0910 C   0  0  0  0  0  0  0  0  0  0  0  0
   32.9310   11.6240   21.0310 C   0  0  0  0  0  0  0  0  0  0  0  0
   33.5710   11.5970   22.4090 C   0  0  0  0  0  0  0  0  0  0  0  0
   33.6280   12.9300   23.0790 C   0  0  0  0  0  0  0  0  0  0  0  0
   32.2420   14.6520   20.8170 C   0  0  0  0  0  0  0  0  0  0  0  0
   31.8780   14.5770   19.6490 O   0  0  0  0  0  0  0  0  0  0  0  0
   32.5180   15.7230   21.3050 O   0  0  0  0  0  0  0  0  0  0  0  0
   32.8000   10.2190   20.4830 C   0  0  0  0  0  0  0  0  0  0  0  0
  2  1  2  0
  3  1  2  0
 11  1  1  0
 15  1  1  0
  5  4  1  0
 14  4  1  0
  6  5  1  0
 13  5  1  0
  7  6  1  0
  8  7  1  0
 12  7  2  0
  9  8  2  0
 10  9  1  0
 11 10  2  0
 12 11  1  0
 14 12  1  0
 16 15  1  0
 17 16  1  0
 19 16  1  0
 18 17  2  0
 26 17  1  0
 20 19  1  0
 21 20  1  0
 22 21  1  0
 23 22  1  0
 24 23  1  0
 25 23  2  0
 27 26  1  0
 31 26  1  0
 28 27  1  0
 32 27  1  0
 29 28  1  0
 30 29  1  0
 35 29  1  0
 31 30  1  0
 33 32  2  0
 34 32  1  0
M  CHG  1  25   1
A    1
S
A    2
O1
A    3
O2
A    4
C1
A    5
C2
A    6
C3
A    7
C4
A    8
C5
A    9
C6
A   10
C7
A   11
C8
A   12
C9
A   13
C10
A   14
N
A   15
N1
A   16
CA
A   17
C
A   18
O
A   19
CB
A   20
CG
A   21
CD
A   22
NE
A   23
CZ
A   24
NH1
A   25
NH2
A   26
N2
A   27
C11
A   28
C21
A   29
C31
A   30
C41
A   31
C51
A   32
C61
A   33
O11
A   34
O21
A   35
C71
M  END
>  <Id>  (91) 
1DWC_MIT_H_1

>  <ChainId>  (91) 
H

>  <AsymId>  (91) 
D

>  <SeqNum>  (91) 
1

>  <Name>  (91) 
amino{[(4S)-5-[(2R,4R)-2-carboxy-4-methylpiperidin-1-yl]-4-({[(3R)-3-methyl-1,2,3,4-tetrahydroquinolin-8-yl]sulfonyl}amino)-5-oxopentyl]amino}methaniminium

>  <SystematicName>  (91) 
[azanyl-[[(4S)-5-[(2R,4R)-2-carboxy-4-methyl-piperidin-1-yl]-4-[[(3R)-3-methyl-1,2,3,4-tetrahydroquinolin-8-yl]sulfonylamino]-5-oxidanylidene-pentyl]amino]methylidene]azanium

>  <Synonyms>  (91) 
R-argatroban; MQPA, MD-805; MITSUBISHI INHIBITOR

>  <Type>  (91) 
peptide-like

>  <Formula>  (91) 
C23 H37 N6 O5 S

>  <ObservedFormula>  (91) 
S C23 N6 O5

>  <MolecularWeight>  (91) 
509.642

>  <ModifiedDate>  (91) 
2012-10-16

>  <Parent>  (91) 


>  <OneLetterCode>  (91) 


>  <SubcomponentList>  (91) 
34T ARG MCP

>  <AmbiguousFlag>  (91) 
N

>  <InsertionCode>  (91) 


>  <InstanceId>  (91) 
1DWC_MIT_H_1

>  <ChemCompId>  (91) 
MIT

>  <PdbId>  (91) 
1DWC

>  <ResidueNumber>  (91) 
1

>  <InChI>  (91) 
InChI=1S/C23H36N6O5S/c1-14-8-10-29(18(12-14)22(31)32)21(30)17(6-4-9-26-23(24)25)28-35(33,34)19-7-3-5-16-11-15(2)13-27-20(16)19/h3,5,7,14-15,17-18,27-28H,4,6,8-13H2,1-2H3,(H,31,32)(H4,24,25,26)/p+1/t14-,15-,17+,18-/m1/s1

>  <InChIKey>  (91) 
KXNPVXPOPUZYGB-XYVMCAHJSA-O

>  <SMILES>  (91) 
C[C@@H]1CCN([C@H](C1)C(=O)O)C(=O)[C@H](CCCNC(=[NH2+])N)NS(=O)(=O)c2cccc3c2NC[C@@H](C3)C

>  <MissingHeavyAtoms>  (91) 
0

>  <Model>  (91) 
1

>  <AltIds>  (91) 


>  <pKI>  (91) 
7.41

>  <ChemblID>  (91) 
-

>  <standardized_canonical_smiles>  (91) 
C[C@@H]1CNc2c(cccc2S(=O)(=O)N[C@@H](CCCNC(N)=[NH2+])C(=O)N2CC[C@@H](C)C[C@@H]2C(=O)O)C1

$$$$
1G32_R11_B_1
     RDKit          3D

 32 36  0  0  0  0  0  0  0  0999 V2000
   10.1660  -12.6970   23.8340 N   0  0  0  0  0  0  0  0  0  0  0  0
   10.8230  -10.7090   24.4120 N   0  0  0  0  0  0  0  0  0  0  0  0
   11.0710  -11.7560   23.6370 C   0  0  0  0  0  0  0  0  0  0  0  0
   12.0760  -11.8060   22.6420 C   0  0  0  0  0  0  0  0  0  0  0  0
   12.2170  -12.9390   21.7620 C   0  0  0  0  0  0  0  0  0  0  0  0
   13.2200  -12.9870   20.7710 C   0  0  0  0  0  0  0  0  0  0  0  0
   14.1190  -11.9080   20.6180 C   0  0  0  0  0  0  0  0  0  0  0  0
   14.0130  -10.7820   21.4600 C   0  0  0  0  0  0  0  0  0  0  0  0
   13.0130  -10.7280   22.4530 C   0  0  0  0  0  0  0  0  0  0  0  0
   15.1590  -11.9140   19.6150 N   0  0  0  0  0  0  0  0  0  0  0  0
   16.6070  -11.5930   19.7590 C   0  0  0  0  0  0  0  0  0  0  0  0
   16.7710  -13.3400   21.5380 N   0  0  0  0  0  0  0  0  0  0  0  0
   17.4550  -12.5180   20.6530 C   0  0  0  0  0  0  0  0  0  0  0  0
   18.8740  -12.5480   20.5970 N   0  0  0  0  0  0  0  0  0  0  0  0
   19.0790  -13.5130   21.5770 C   0  0  0  0  0  0  0  0  0  0  0  0
   17.8250  -13.9740   22.1300 C   0  0  0  0  0  0  0  0  0  0  0  0
   20.3100  -14.0490   22.0620 C   0  0  0  0  0  0  0  0  0  0  0  0
   20.2710  -15.0180   23.0730 C   0  0  0  0  0  0  0  0  0  0  0  0
   19.0360  -15.4790   23.6240 C   0  0  0  0  0  0  0  0  0  0  0  0
   17.8040  -14.9660   23.1580 C   0  0  0  0  0  0  0  0  0  0  0  0
   19.8590  -11.7950   19.7590 C   0  0  0  0  0  0  0  0  0  0  0  0
   19.0640  -16.5290   24.7460 C   0  0  0  0  0  0  0  0  0  0  0  0
   20.3380  -16.4640   25.5410 N   0  0  0  0  0  0  0  0  0  0  0  0
   21.3530  -17.4090   25.8040 C   0  0  0  0  0  0  0  0  0  0  0  0
   22.4750  -17.0940   26.5840 N   0  0  0  0  0  0  0  0  0  0  0  0
   22.1430  -15.7810   26.8580 C   0  0  0  0  0  0  0  0  0  0  0  0
   20.8880  -15.4060   26.2450 C   0  0  0  0  0  0  0  0  0  0  0  0
   22.8680  -14.8260   27.6370 C   0  0  0  0  0  0  0  0  0  0  0  0
   22.3250  -13.5250   27.7860 C   0  0  0  0  0  0  0  0  0  0  0  0
   21.1070  -13.1530   27.1880 C   0  0  0  0  0  0  0  0  0  0  0  0
   20.3730  -14.0790   26.4250 C   0  0  0  0  0  0  0  0  0  0  0  0
   21.2740  -18.8190   25.2420 C   0  0  0  0  0  0  0  0  0  0  0  0
  3  1  2  0
  3  2  1  0
  4  3  1  0
  5  4  2  0
  9  4  1  0
  6  5  1  0
  7  6  2  0
  8  7  1  0
 10  7  1  0
  9  8  2  0
 11 10  1  0
 13 11  1  0
 13 12  2  0
 16 12  1  0
 14 13  1  0
 15 14  1  0
 21 14  1  0
 16 15  2  0
 17 15  1  0
 20 16  1  0
 18 17  2  0
 19 18  1  0
 20 19  2  0
 22 19  1  0
 23 22  1  0
 24 23  1  0
 27 23  1  0
 25 24  2  0
 32 24  1  0
 26 25  1  0
 27 26  2  0
 28 26  1  0
 31 27  1  0
 29 28  2  0
 30 29  1  0
 31 30  2  0
A    1
N1
A    2
N2
A    3
C1
A    4
C2
A    5
C3
A    6
C4
A    7
C5
A    8
C6
A    9
C7
A   10
N
A   11
C
A   12
N3
A   13
C8
A   14
N9
A   15
C3A
A   16
C7A
A   17
C10
A   18
C11
A   19
C12
A   20
C13
A   21
C14
A   22
C9
A   23
N4
A   24
C15
A   25
N16
A   26
C17
A   27
C18
A   28
C19
A   29
C20
A   30
C21
A   31
C22
A   32
C23
M  END
>  <Id>  (92) 
1G32_R11_B_1

>  <ChainId>  (92) 
B

>  <AsymId>  (92) 
D

>  <SeqNum>  (92) 
1

>  <Name>  (92) 
4-{[1-METHYL-5-(2-METHYL-BENZOIMIDAZOL-1-YLMETHYL)-1H-BENZOIMIDAZOL-2-YLMETHYL]-AMINO}-BENZAMIDINE

>  <SystematicName>  (92) 
4-[[1-methyl-5-[(2-methylbenzimidazol-1-yl)methyl]benzimidazol-2-yl]methylamino]benzenecarboximidamide

>  <Synonyms>  (92) 


>  <Type>  (92) 
NON-POLYMER

>  <Formula>  (92) 
C25 H25 N7

>  <ObservedFormula>  (92) 
C25 N7

>  <MolecularWeight>  (92) 
423.513

>  <ModifiedDate>  (92) 
2011-06-04

>  <Parent>  (92) 


>  <OneLetterCode>  (92) 


>  <SubcomponentList>  (92) 


>  <AmbiguousFlag>  (92) 
N

>  <InsertionCode>  (92) 


>  <InstanceId>  (92) 
1G32_R11_B_1

>  <ChemCompId>  (92) 
R11

>  <PdbId>  (92) 
1G32

>  <ResidueNumber>  (92) 
1

>  <InChI>  (92) 
InChI=1S/C25H25N7/c1-16-29-20-5-3-4-6-23(20)32(16)15-17-7-12-22-21(13-17)30-24(31(22)2)14-28-19-10-8-18(9-11-19)25(26)27/h3-13,28H,14-15H2,1-2H3,(H3,26,27)

>  <InChIKey>  (92) 
IRKPNOLLMNHSOU-UHFFFAOYSA-N

>  <SMILES>  (92) 
[H]/N=C(/c1ccc(cc1)NCc2nc3cc(ccc3n2C)Cn4c(nc5c4cccc5)C)\N

>  <MissingHeavyAtoms>  (92) 
0

>  <Model>  (92) 
1

>  <AltIds>  (92) 


>  <pKI>  (92) 
6.11

>  <ChemblID>  (92) 
-

>  <standardized_canonical_smiles>  (92) 
Cc1nc2ccccc2n1Cc1ccc2c(c1)nc(CNc1ccc(C(=N)N)cc1)n2C

$$$$
2BXU_C1D_H_1246
     RDKit          3D

 31 33  0  0  0  0  0  0  0  0999 V2000
    6.4780  -15.3240   10.8540 C   0  0  0  0  0  0  0  0  0  0  0  0
    7.6680  -16.0430   10.5970 N   0  0  0  0  0  0  0  0  0  0  0  0
    8.7030  -15.5060    9.8000 C   0  0  0  0  0  0  0  0  0  0  0  0
    8.5330  -14.2160    9.2490 C   0  0  0  0  0  0  0  0  0  0  0  0
    7.3440  -13.4990    9.5060 C   0  0  0  0  0  0  0  0  0  0  0  0
    6.3160  -14.0430   10.3050 C   0  0  0  0  0  0  0  0  0  0  0  0
    9.9860  -16.3030    9.5440 C   0  0  0  0  0  0  0  0  0  0  0  0
   10.6690  -16.7460   10.8490 C   0  0  0  0  0  0  0  0  0  0  0  0
    9.6920  -17.4090    8.8240 F   0  0  0  0  0  0  0  0  0  0  0  0
   10.8780  -15.5660    8.8430 F   0  0  0  0  0  0  0  0  0  0  0  0
   11.1960  -15.5770   11.6040 N   0  0  0  0  0  0  0  0  0  0  0  0
   10.5960  -14.9140   12.6740 C   0  0  0  0  0  0  0  0  0  0  0  0
   11.2160  -13.6760   13.2560 C   0  0  0  0  0  0  0  0  0  0  0  0
   10.5820  -13.0140   14.3540 N   0  0  0  0  0  0  0  0  0  0  0  0
    9.3540  -13.5530   14.8690 C   0  0  0  0  0  0  0  0  0  0  0  0
    8.8080  -14.6710   14.3300 C   0  0  0  0  0  0  0  0  0  0  0  0
    9.4720  -15.3660   13.1850 N   0  0  0  0  0  0  0  0  0  0  0  0
   11.2060  -11.7750   14.9370 C   0  0  0  0  0  0  0  0  0  0  0  0
   12.4770  -12.0280   15.8010 C   0  0  0  0  0  0  0  0  0  0  0  0
   13.5890  -12.7190   15.0930 N   0  0  0  0  0  0  0  0  0  0  0  0
   14.7690  -11.8430   15.2220 C   0  0  0  0  0  0  0  0  0  0  0  0
   15.6930  -11.6910   14.0010 C   0  0  0  0  0  0  0  0  0  0  0  0
   15.8260  -10.3840   13.5000 C   0  0  0  0  0  0  0  0  0  0  0  0
   16.6330  -10.0880   12.3890 C   0  0  0  0  0  0  0  0  0  0  0  0
   16.3490  -14.1870   13.7940 C   0  0  0  0  0  0  0  0  0  0  0  0
   17.3300  -11.1220   11.7540 C   0  0  0  0  0  0  0  0  0  0  0  0
   16.4060  -12.7420   13.3540 C   0  0  0  0  0  0  0  0  0  0  0  0
   12.2550  -13.2530   12.7870 O   0  0  0  0  0  0  0  0  0  0  0  0
   18.1420  -10.8360   10.6330 N   0  0  0  0  0  0  0  0  0  0  0  0
    8.5210  -12.8130   16.1890 Cl  0  0  0  0  0  0  0  0  0  0  0  0
   17.2100  -12.4330   12.2410 N   0  0  0  0  0  0  0  0  0  0  0  0
  2  1  2  0
  6  1  1  0
  3  2  1  0
  4  3  2  0
  7  3  1  0
  5  4  1  0
  6  5  2  0
  8  7  1  0
  9  7  1  0
 10  7  1  0
 11  8  1  0
 12 11  1  0
 13 12  1  0
 17 12  2  0
 14 13  1  0
 28 13  1  0
 15 14  1  0
 18 14  1  0
 16 15  2  0
 30 15  1  0
 17 16  1  0
 19 18  1  0
 20 19  1  0
 21 20  1  0
 22 21  1  0
 23 22  1  0
 27 22  1  0
 24 23  1  0
 26 24  1  0
 27 25  1  0
 29 26  1  0
 31 26  1  0
 31 27  1  0
A    1
C1
A    2
N2
A    3
C3
A    4
C4
A    5
C5
A    6
C6
A    7
C11
A    8
C12
A    9
F13
A   10
F14
A   11
N15
A   12
C18
A   13
C19
A   14
N20
A   15
C21
A   16
C22
A   17
N23
A   18
C24
A   19
C25
A   20
N28
A   21
C29
A   22
C30
A   23
C33
A   24
C34
A   25
C2
A   26
C35
A   27
C37
A   28
O42
A   29
N6
A   30
CL43
A   31
N29
M  END
>  <Id>  (93) 
2BXU_C1D_H_1246

>  <ChainId>  (93) 
H

>  <AsymId>  (93) 
D

>  <SeqNum>  (93) 
1246

>  <Name>  (93) 
1-(2-{[(6-AMINO-2-METHYLPYRIDIN-3-YL)METHYL]AMINO}ETHYL)-6-CHLORO-3-[(2,2-DIFLUORO-2-PYRIDIN-2-YLETHYL)AMINO]-1,4-DIHYDROPYRAZIN-2-OL

>  <SystematicName>  (93) 
1-[2-[(6-amino-2-methyl-piperidin-3-yl)methylamino]ethyl]-6-chloro-3-[(2,2-difluoro-2-pyridin-2-yl-ethyl)amino]-2H-pyrazin-2-ol

>  <Synonyms>  (93) 


>  <Type>  (93) 
NON-POLYMER

>  <Formula>  (93) 
C20 H30 Cl F2 N7 O

>  <ObservedFormula>  (93) 
C20 F2 Cl N7 O

>  <MolecularWeight>  (93) 
457.948

>  <ModifiedDate>  (93) 
2011-06-04

>  <Parent>  (93) 


>  <OneLetterCode>  (93) 


>  <SubcomponentList>  (93) 


>  <AmbiguousFlag>  (93) 
N

>  <InsertionCode>  (93) 


>  <InstanceId>  (93) 
2BXU_C1D_H_1246

>  <ChemCompId>  (93) 
C1D

>  <PdbId>  (93) 
2BXU

>  <ResidueNumber>  (93) 
1246

>  <InChI>  (93) 
InChI=1S/C20H30ClF2N7O/c1-13-14(5-6-17(24)29-13)10-25-8-9-30-16(21)11-27-18(19(30)31)28-12-20(22,23)15-4-2-3-7-26-15/h2-4,7,11,13-14,17,19,25,29,31H,5-6,8-10,12,24H2,1H3,(H,27,28)/t13?,14?,17-,19?/m1/s1

>  <InChIKey>  (93) 
MQHPMJMCBRFLML-GGZDVPIDSA-N

>  <SMILES>  (93) 
CC1C(CCC(N1)N)CNCCN2C(C(=NC=C2Cl)NCC(c3ccccn3)(F)F)O

>  <MissingHeavyAtoms>  (93) 
0

>  <Model>  (93) 
1

>  <AltIds>  (93) 


>  <pKI>  (93) 
7.15

>  <ChemblID>  (93) 
-

>  <standardized_canonical_smiles>  (93) 
CC1NC(N)CCC1CNCCN1C(Cl)=CN=C(NCC(F)(F)c2ccccn2)C1O

$$$$
3C1K_T15_A_403
     RDKit          3D

 38 40  0  0  0  0  0  0  0  0999 V2000
   22.0550  -15.9300   25.2250 C   0  0  0  0  0  0  0  0  0  0  0  0
   20.9050  -16.6570   25.5380 C   0  0  0  0  0  0  0  0  0  0  0  0
   19.7870  -16.0110   26.0790 C   0  0  0  0  0  0  0  0  0  0  0  0
   19.8140  -14.6410   26.3070 C   0  0  0  0  0  0  0  0  0  0  0  0
   20.9650  -13.9140   25.9970 C   0  0  0  0  0  0  0  0  0  0  0  0
   22.0830  -14.5580   25.4550 C   0  0  0  0  0  0  0  0  0  0  0  0
   18.5680  -16.8090   26.4500 C   0  0  0  0  0  0  0  0  0  0  0  0
   17.6640  -17.4340   25.0350 S   0  0  0  0  0  0  0  0  0  0  0  0
   17.0810  -16.1830   24.1820 N   0  0  0  0  0  0  0  0  0  0  0  0
   17.2530  -14.3100   22.6990 C   0  0  0  0  0  0  0  0  0  0  0  0
   18.0610  -13.6730   21.7500 N   0  0  0  0  0  0  0  0  0  0  0  0
   19.2830  -14.0830   21.3950 C   0  0  0  0  0  0  0  0  0  0  0  0
   19.8440  -15.2090   21.9830 C   0  0  0  0  0  0  0  0  0  0  0  0
   19.1220  -15.9120   22.9400 C   0  0  0  0  0  0  0  0  0  0  0  0
   16.1300  -13.8740   22.9590 O   0  0  0  0  0  0  0  0  0  0  0  0
   20.0230  -13.3520   20.3450 C   0  0  0  0  0  0  0  0  0  0  0  0
   17.5590  -12.4570   21.0970 C   0  0  0  0  0  0  0  0  0  0  0  0
   16.2630  -12.7260   20.4460 C   0  0  0  0  0  0  0  0  0  0  0  0
   17.8450  -15.4900   23.3030 C   0  0  0  0  0  0  0  0  0  0  0  0
   15.2740  -11.9350   20.8680 N   0  0  0  0  0  0  0  0  0  0  0  0
   12.8980  -12.2040   21.3910 C   0  0  0  0  0  0  0  0  0  0  0  0
   12.5000  -13.2800   22.0890 N   0  0  0  0  0  0  0  0  0  0  0  0
   11.5410  -12.8860   23.0000 C   0  0  0  0  0  0  0  0  0  0  0  0
   11.3760  -11.5340   22.8490 N   0  0  0  0  0  0  0  0  0  0  0  0
   12.1970  -11.1180   21.8500 C   0  0  0  0  0  0  0  0  0  0  0  0
   12.9950  -14.6520   21.9140 C   0  0  0  0  0  0  0  0  0  0  0  0
   12.3030  -15.3840   20.7710 C   0  0  0  0  0  0  0  0  0  0  0  0
   12.4130  -16.7130   20.8780 N   0  0  0  0  0  0  0  0  0  0  0  0
   11.8650  -17.5720   19.8440 C   0  0  0  0  0  0  0  0  0  0  0  0
   12.4320  -17.1660   18.4560 C   0  0  0  0  0  0  0  0  0  0  0  0
   10.3270  -17.4480   19.9020 C   0  0  0  0  0  0  0  0  0  0  0  0
   12.2480  -19.0410   20.0940 C   0  0  0  0  0  0  0  0  0  0  0  0
   11.7760  -14.8150   19.8290 O   0  0  0  0  0  0  0  0  0  0  0  0
   16.1320  -13.6700   19.6920 O   0  0  0  0  0  0  0  0  0  0  0  0
   16.5180  -18.1240   25.5420 O   0  0  0  0  0  0  0  0  0  0  0  0
   18.5610  -18.1490   24.1700 O   0  0  0  0  0  0  0  0  0  0  0  0
   12.2880   -9.7380   21.3810 C   0  0  0  0  0  0  0  0  0  0  0  0
   13.9330  -12.1840   20.3020 C   0  0  0  0  0  0  0  0  0  0  0  0
  2  1  2  0
  6  1  1  0
  3  2  1  0
  4  3  2  0
  7  3  1  0
  5  4  1  0
  6  5  2  0
  8  7  1  0
  9  8  1  0
 35  8  2  0
 36  8  2  0
 19  9  1  0
 11 10  1  0
 15 10  2  0
 19 10  1  0
 12 11  1  0
 17 11  1  0
 13 12  2  0
 16 12  1  0
 14 13  1  0
 19 14  2  0
 18 17  1  0
 20 18  1  0
 34 18  2  0
 38 20  1  0
 22 21  1  0
 25 21  2  0
 38 21  1  0
 23 22  1  0
 26 22  1  0
 24 23  2  0
 25 24  1  0
 37 25  1  0
 27 26  1  0
 28 27  1  0
 33 27  2  0
 29 28  1  0
 30 29  1  0
 31 29  1  0
 32 29  1  0
A    1
C1
A    2
C2
A    3
C3
A    4
C4
A    5
C5
A    6
C6
A    7
C7
A    8
S8
A    9
N9
A   10
C10
A   11
N11
A   12
C12
A   13
C13
A   14
C14
A   15
O15
A   16
C16
A   17
C17
A   18
C18
A   19
C19
A   20
N20
A   21
C22
A   22
N23
A   23
C24
A   24
N25
A   25
C26
A   26
C28
A   27
C29
A   28
N30
A   29
C31
A   30
C32
A   31
C33
A   32
C34
A   33
O35
A   34
O36
A   35
O37
A   36
O38
A   37
C8
A   38
C9
M  END
>  <Id>  (94) 
3C1K_T15_A_403

>  <ChainId>  (94) 
A

>  <AsymId>  (94) 
C

>  <SeqNum>  (94) 
403

>  <Name>  (94) 
2-{3-[(benzylsulfonyl)amino]-6-methyl-2-oxopyridin-1(2H)-yl}-N-({1-[2-(tert-butylamino)-2-oxoethyl]-4-methyl-1H-imidazol-5-yl}methyl)acetamide

>  <SystematicName>  (94) 
N-[[3-[2-(tert-butylamino)-2-oxo-ethyl]-5-methyl-imidazol-4-yl]methyl]-2-[6-methyl-2-oxo-3-(phenylmethylsulfonylamino)pyridin-1-yl]ethanamide

>  <Synonyms>  (94) 


>  <Type>  (94) 
NON-POLYMER

>  <Formula>  (94) 
C26 H34 N6 O5 S

>  <ObservedFormula>  (94) 
C26 S N6 O5

>  <MolecularWeight>  (94) 
542.65

>  <ModifiedDate>  (94) 
2011-06-04

>  <Parent>  (94) 


>  <OneLetterCode>  (94) 


>  <SubcomponentList>  (94) 


>  <AmbiguousFlag>  (94) 
N

>  <InsertionCode>  (94) 


>  <InstanceId>  (94) 
3C1K_T15_A_403

>  <ChemCompId>  (94) 
T15

>  <PdbId>  (94) 
3C1K

>  <ResidueNumber>  (94) 
403

>  <InChI>  (94) 
InChI=1S/C26H34N6O5S/c1-18-11-12-21(30-38(36,37)16-20-9-7-6-8-10-20)25(35)32(18)15-23(33)27-13-22-19(2)28-17-31(22)14-24(34)29-26(3,4)5/h6-12,17,30H,13-16H2,1-5H3,(H,27,33)(H,29,34)

>  <InChIKey>  (94) 
JIBFIIUWYBXSQB-UHFFFAOYSA-N

>  <SMILES>  (94) 
Cc1c(n(cn1)CC(=O)NC(C)(C)C)CNC(=O)CN2C(=CC=C(C2=O)NS(=O)(=O)Cc3ccccc3)C

>  <MissingHeavyAtoms>  (94) 
0

>  <Model>  (94) 
1

>  <AltIds>  (94) 


>  <pKI>  (94) 
9.44

>  <ChemblID>  (94) 
-

>  <standardized_canonical_smiles>  (94) 
Cc1ncn(CC(=O)NC(C)(C)C)c1CNC(=O)Cn1c(C)ccc(NS(=O)(=O)Cc2ccccc2)c1=O

$$$$
1YPE_UIP_H_5555
     RDKit          3D

 33 38  0  0  0  0  0  0  0  0999 V2000
   10.4780  -11.8790   24.1020 N   0  0  0  0  0  0  0  0  0  0  0  0
   11.2010  -10.8070   23.7380 C   0  0  0  0  0  0  0  0  0  0  0  0
   10.8160   -9.6400   24.3190 N   0  0  0  0  0  0  0  0  0  0  0  0
   12.2760  -10.9070   22.8150 C   0  0  0  0  0  0  0  0  0  0  0  0
   12.5950  -12.1660   22.2840 C   0  0  0  0  0  0  0  0  0  0  0  0
   13.6580  -12.3050   21.3750 C   0  0  0  0  0  0  0  0  0  0  0  0
   14.4080  -11.1940   20.9800 C   0  0  0  0  0  0  0  0  0  0  0  0
   14.0640   -9.9390   21.5120 C   0  0  0  0  0  0  0  0  0  0  0  0
   13.0340   -9.7900   22.4220 C   0  0  0  0  0  0  0  0  0  0  0  0
   15.5400  -11.3240   19.9990 C   0  0  0  0  0  0  0  0  0  0  0  0
   15.3840  -12.5390   19.1310 N   0  0  0  0  0  0  0  0  0  0  0  0
   14.3780  -12.4050   18.0400 C   0  0  0  0  0  0  0  0  0  0  0  0
   15.1810  -12.4830   16.7170 C   0  0  0  0  0  0  0  0  0  0  0  0
   16.5850  -12.0440   17.0900 C   0  0  0  0  0  0  0  0  0  0  0  0
   16.7410  -12.7050   18.4770 C   0  0  0  0  0  0  0  0  0  0  0  0
   17.7720  -11.8600   19.2980 C   0  0  0  0  0  0  0  0  0  0  0  0
   18.8750  -12.8050   19.8750 C   0  0  0  0  0  0  0  0  0  0  0  0
   18.3590  -13.2410   21.1420 N   0  0  0  0  0  0  0  0  0  0  0  0
   17.1700  -12.6420   21.4890 C   0  0  0  0  0  0  0  0  0  0  0  0
   16.6000  -12.7760   22.6030 O   0  0  0  0  0  0  0  0  0  0  0  0
   16.9660  -11.4190   20.5600 C   0  0  0  0  0  0  0  0  0  0  0  0
   18.8590  -14.4250   21.9280 C   0  0  0  0  0  0  0  0  0  0  0  0
   19.8900  -14.1260   22.9970 C   0  0  0  0  0  0  0  0  0  0  0  0
   19.4920  -13.6940   24.3040 C   0  0  0  0  0  0  0  0  0  0  0  0
   20.3820  -13.3700   25.3500 C   0  0  0  0  0  0  0  0  0  0  0  0
   21.7340  -13.4580   25.0110 C   0  0  0  0  0  0  0  0  0  0  0  0
   22.8270  -13.0620   25.7580 O   0  0  0  0  0  0  0  0  0  0  0  0
   23.9540  -13.7110   25.0730 C   0  0  0  0  0  0  0  0  0  0  0  0
   23.5520  -14.1020   23.7340 O   0  0  0  0  0  0  0  0  0  0  0  0
   22.1660  -13.8890   23.7400 C   0  0  0  0  0  0  0  0  0  0  0  0
   21.2620  -14.2250   22.7050 C   0  0  0  0  0  0  0  0  0  0  0  0
   20.2760  -12.1470   19.9730 C   0  0  0  0  0  0  0  0  0  0  0  0
   20.9020  -12.0300   18.5770 C   0  0  0  0  0  0  0  0  0  0  0  0
  2  1  2  0
  3  2  1  0
  4  2  1  0
  5  4  2  0
  9  4  1  0
  6  5  1  0
  7  6  2  0
  8  7  1  0
 10  7  1  0
  9  8  2  0
 11 10  1  0
 21 10  1  0
 12 11  1  0
 15 11  1  0
 13 12  1  0
 14 13  1  0
 15 14  1  0
 16 15  1  0
 17 16  1  0
 21 16  1  0
 18 17  1  0
 32 17  1  0
 19 18  1  0
 22 18  1  0
 20 19  2  0
 21 19  1  0
 23 22  1  0
 24 23  2  0
 31 23  1  0
 25 24  1  0
 26 25  2  0
 27 26  1  0
 30 26  1  0
 28 27  1  0
 29 28  1  0
 30 29  1  0
 31 30  2  0
 33 32  1  0
A    1
N1
A    2
C3
A    3
N2
A    4
C4
A    5
C9
A    6
C8
A    7
C7
A    8
C6
A    9
C5
A   10
C10
A   11
N11
A   12
C12
A   13
C13
A   14
C14
A   15
C15
A   16
C16
A   17
C17
A   18
N19
A   19
C20
A   20
O21
A   21
C22
A   22
C23
A   23
C24
A   24
C32
A   25
C31
A   26
C30
A   27
O29
A   28
C28
A   29
O27
A   30
C26
A   31
C25
A   32
C18
A   33
C42
M  END
>  <Id>  (95) 
1YPE_UIP_H_5555

>  <ChainId>  (95) 
H

>  <AsymId>  (95) 
F

>  <SeqNum>  (95) 
5555

>  <Name>  (95) 
(1R,3AS,4R,8AS,8BR)-4-(2-BENZO[1,3]DIOXOL-5-YLMETHYL-1-ETHYL-3-OXO-DECAHYDRO-PYRROLO[3,4-A]PYRROLIZIN-4-YL)-BENZAMIDINE

>  <SystematicName>  (95) 
4-[(1R,3aS,4R,5S,8aS,8bR)-2-(1,3-benzodioxol-5-ylmethyl)-1-ethyl-3-oxo-1,3a,4,6,7,8,8a,8b-octahydropyrrolo[3,4-a]pyrrolizin-4-yl]benzenecarboximidamide

>  <Synonyms>  (95) 


>  <Type>  (95) 
NON-POLYMER

>  <Formula>  (95) 
C26 H30 N4 O3

>  <ObservedFormula>  (95) 
C26 N4 O3

>  <MolecularWeight>  (95) 
446.541

>  <ModifiedDate>  (95) 
2011-06-04

>  <Parent>  (95) 


>  <OneLetterCode>  (95) 


>  <SubcomponentList>  (95) 


>  <AmbiguousFlag>  (95) 
N

>  <InsertionCode>  (95) 


>  <InstanceId>  (95) 
1YPE_UIP_H_5555

>  <ChemCompId>  (95) 
UIP

>  <PdbId>  (95) 
1YPE

>  <ResidueNumber>  (95) 
5555

>  <InChI>  (95) 
InChI=1S/C26H30N4O3/c1-2-18-22-19-4-3-11-29(19)24(16-6-8-17(9-7-16)25(27)28)23(22)26(31)30(18)13-15-5-10-20-21(12-15)33-14-32-20/h5-10,12,18-19,22-24H,2-4,11,13-14H2,1H3,(H3,27,28)/t18-,19+,22+,23+,24+/m1/s1

>  <InChIKey>  (95) 
RCAUWWFTOCHSJH-KEXZDOINSA-N

>  <SMILES>  (95) 
CC[C@@H]1[C@H]2[C@@H]3CCC[N@@]3[C@H]([C@H]2C(=O)N1Cc4ccc5c(c4)OCO5)c6ccc(cc6)C(=N)N

>  <MissingHeavyAtoms>  (95) 
0

>  <Model>  (95) 
1

>  <AltIds>  (95) 


>  <pKI>  (95) 
8.1

>  <ChemblID>  (95) 
-

>  <standardized_canonical_smiles>  (95) 
CC[C@@H]1[C@@H]2[C@H](C(=O)N1Cc1ccc3c(c1)OCO3)[C@H](c1ccc(C(=N)N)cc1)N1CCC[C@@H]21

$$$$
1YPJ_UIB_H_5555
     RDKit          3D

 33 37  0  0  0  0  0  0  0  0999 V2000
   10.7290  -11.8010   24.3240 N   0  0  0  0  0  0  0  0  0  0  0  0
   11.4620  -10.7700   23.8820 C   0  0  0  0  0  0  0  0  0  0  0  0
   11.0720   -9.5970   24.4620 N   0  0  0  0  0  0  0  0  0  0  0  0
   12.5100  -10.9090   22.9150 C   0  0  0  0  0  0  0  0  0  0  0  0
   13.2720   -9.8170   22.4530 C   0  0  0  0  0  0  0  0  0  0  0  0
   14.2890   -9.9680   21.5290 C   0  0  0  0  0  0  0  0  0  0  0  0
   14.6190  -11.2340   20.9920 C   0  0  0  0  0  0  0  0  0  0  0  0
   15.6990  -11.3800   19.9560 C   0  0  0  0  0  0  0  0  0  0  0  0
   17.1830  -11.5280   20.3580 C   0  0  0  0  0  0  0  0  0  0  0  0
   17.8840  -12.0380   19.0830 C   0  0  0  0  0  0  0  0  0  0  0  0
   16.7300  -12.6320   18.2390 C   0  0  0  0  0  0  0  0  0  0  0  0
   16.9380  -14.1140   17.8350 C   0  0  0  0  0  0  0  0  0  0  0  0
   16.7210  -11.7930   16.9430 C   0  0  0  0  0  0  0  0  0  0  0  0
   15.4930  -12.4940   19.0230 N   0  0  0  0  0  0  0  0  0  0  0  0
   14.2700  -12.3660   18.2020 C   0  0  0  0  0  0  0  0  0  0  0  0
   18.9360  -13.0570   19.5920 C   0  0  0  0  0  0  0  0  0  0  0  0
   18.5190  -13.3720   20.9510 N   0  0  0  0  0  0  0  0  0  0  0  0
   19.0410  -14.5060   21.7870 C   0  0  0  0  0  0  0  0  0  0  0  0
   20.0430  -14.0770   22.8530 C   0  0  0  0  0  0  0  0  0  0  0  0
   19.5990  -13.6360   24.1380 C   0  0  0  0  0  0  0  0  0  0  0  0
   20.4930  -13.3270   25.1870 C   0  0  0  0  0  0  0  0  0  0  0  0
   21.8550  -13.4770   24.8710 C   0  0  0  0  0  0  0  0  0  0  0  0
   22.3080  -13.9030   23.6100 C   0  0  0  0  0  0  0  0  0  0  0  0
   21.4120  -14.2160   22.5680 C   0  0  0  0  0  0  0  0  0  0  0  0
   23.7000  -13.9730   23.5350 O   0  0  0  0  0  0  0  0  0  0  0  0
   24.1030  -13.5500   24.8690 C   0  0  0  0  0  0  0  0  0  0  0  0
   22.9300  -13.2350   25.6950 O   0  0  0  0  0  0  0  0  0  0  0  0
   17.4350  -12.6540   21.3730 C   0  0  0  0  0  0  0  0  0  0  0  0
   16.8700  -12.7620   22.4930 O   0  0  0  0  0  0  0  0  0  0  0  0
   20.3330  -12.4110   19.6630 C   0  0  0  0  0  0  0  0  0  0  0  0
   20.8750  -12.2520   18.2290 C   0  0  0  0  0  0  0  0  0  0  0  0
   13.8890  -12.3290   21.4710 C   0  0  0  0  0  0  0  0  0  0  0  0
   12.8400  -12.1640   22.3880 C   0  0  0  0  0  0  0  0  0  0  0  0
  2  1  1  0
  3  2  2  0
  4  2  1  0
  5  4  2  0
 33  4  1  0
  6  5  1  0
  7  6  2  0
  8  7  1  0
 32  7  1  0
  9  8  1  0
 14  8  1  0
 10  9  1  0
 28  9  1  0
 11 10  1  0
 16 10  1  0
 12 11  1  0
 13 11  1  0
 14 11  1  0
 15 14  1  0
 17 16  1  0
 30 16  1  0
 18 17  1  0
 28 17  1  0
 19 18  1  0
 20 19  2  0
 24 19  1  0
 21 20  1  0
 22 21  2  0
 23 22  1  0
 27 22  1  0
 24 23  2  0
 25 23  1  0
 26 25  1  0
 27 26  1  0
 29 28  2  0
 31 30  1  0
 33 32  2  0
A    1
N1
A    2
C3
A    3
N2
A    4
C4
A    5
C5
A    6
C6
A    7
C7
A    8
C10
A    9
C22
A   10
C16
A   11
C15
A   12
C13
A   13
C14
A   14
N11
A   15
C12
A   16
C17
A   17
N19
A   18
C23
A   19
C24
A   20
C32
A   21
C31
A   22
C30
A   23
C26
A   24
C25
A   25
O27
A   26
C28
A   27
O29
A   28
C20
A   29
O21
A   30
C18
A   31
C41
A   32
C8
A   33
C9
M  END
>  <Id>  (96) 
1YPJ_UIB_H_5555

>  <ChainId>  (96) 
H

>  <AsymId>  (96) 
D

>  <SeqNum>  (96) 
5555

>  <Name>  (96) 
(1R,3AS,4R,8AS,8BR)-4-{5-(PHENYL[1,3]DIOXOL-5-YLMETHYL)-4-ETHYL-2,3,3-TRIMETHYL-6-OXO-OCTAHYDRO-PYRROLO[3,4-C]PYRROL-1-YL}-BENZAMIDINE

>  <SystematicName>  (96) 
4-[(1R,2R,3aS,4R,6aS)-5-(1,3-benzodioxol-5-ylmethyl)-4-ethyl-2,3,3-trimethyl-6-oxo-1,3a,4,6a-tetrahydropyrrolo[4,3-c]pyrrol-1-yl]benzenecarboximidamide

>  <Synonyms>  (96) 


>  <Type>  (96) 
NON-POLYMER

>  <Formula>  (96) 
C26 H32 N4 O3

>  <ObservedFormula>  (96) 
C26 N4 O3

>  <MolecularWeight>  (96) 
448.557

>  <ModifiedDate>  (96) 
2011-06-04

>  <Parent>  (96) 


>  <OneLetterCode>  (96) 


>  <SubcomponentList>  (96) 


>  <AmbiguousFlag>  (96) 
N

>  <InsertionCode>  (96) 


>  <InstanceId>  (96) 
1YPJ_UIB_H_5555

>  <ChemCompId>  (96) 
UIB

>  <PdbId>  (96) 
1YPJ

>  <ResidueNumber>  (96) 
5555

>  <InChI>  (96) 
InChI=1S/C26H32N4O3/c1-5-18-22-21(25(31)30(18)13-15-6-11-19-20(12-15)33-14-32-19)23(29(4)26(22,2)3)16-7-9-17(10-8-16)24(27)28/h6-12,18,21-23H,5,13-14H2,1-4H3,(H3,27,28)/t18-,21+,22-,23+/m1/s1

>  <InChIKey>  (96) 
HQVPEQYGMUJQHM-MSYGRNIXSA-N

>  <SMILES>  (96) 
CC[C@@H]1[C@@H]2[C@@H]([C@@H]([N@](C2(C)C)C)c3ccc(cc3)C(=N)N)C(=O)N1Cc4ccc5c(c4)OCO5

>  <MissingHeavyAtoms>  (96) 
0

>  <Model>  (96) 
1

>  <AltIds>  (96) 


>  <pKI>  (96) 
7.02

>  <ChemblID>  (96) 
-

>  <standardized_canonical_smiles>  (96) 
CC[C@@H]1[C@@H]2[C@H](C(=O)N1Cc1ccc3c(c1)OCO3)[C@H](c1ccc(C(=N)N)cc1)N(C)C2(C)C

$$$$
1FPC_0ZI_H_371
     RDKit          3D

 35 37  0  0  0  0  0  0  0  0999 V2000
   17.5650  -17.0930   22.3550 C   0  0  0  0  0  0  0  0  0  0  0  0
   18.3640  -17.0780   21.1800 C   0  0  0  0  0  0  0  0  0  0  0  0
   19.6660  -16.6580   21.2390 C   0  0  0  0  0  0  0  0  0  0  0  0
   20.2110  -16.2220   22.4590 C   0  0  0  0  0  0  0  0  0  0  0  0
   19.4500  -16.2300   23.6240 C   0  0  0  0  0  0  0  0  0  0  0  0
   19.9740  -15.8220   24.8170 C   0  0  0  0  0  0  0  0  0  0  0  0
   19.2000  -15.7920   25.9650 C   0  0  0  0  0  0  0  0  0  0  0  0
   17.8740  -16.2710   25.8910 C   0  0  0  0  0  0  0  0  0  0  0  0
   17.3140  -16.6790   24.6970 C   0  0  0  0  0  0  0  0  0  0  0  0
   18.0840  -16.6810   23.5630 C   0  0  0  0  0  0  0  0  0  0  0  0
   21.2910  -15.3480   24.8670 N   0  0  0  0  0  0  0  0  0  0  0  0
   21.6710  -13.9230   24.9480 C   0  0  0  0  0  0  0  0  0  0  0  0
   22.2730  -16.2210   25.8110 C   0  0  0  0  0  0  0  0  0  0  0  0
   15.7800  -17.6380   22.1970 S   0  0  0  0  0  0  0  0  0  0  0  0
   15.6560  -18.0790   20.7840 O   0  0  0  0  0  0  0  0  0  0  0  0
   15.0610  -18.5890   23.1260 O   0  0  0  0  0  0  0  0  0  0  0  0
   14.6980  -16.2450   22.3190 N   0  0  0  0  0  0  0  0  0  0  0  0
   14.7870  -15.1650   21.3470 C   0  0  0  0  0  0  0  0  0  0  0  0
   15.8750  -14.1850   21.7940 C   0  0  0  0  0  0  0  0  0  0  0  0
   16.1180  -13.9270   22.9870 O   0  0  0  0  0  0  0  0  0  0  0  0
   13.4540  -14.4560   21.2730 C   0  0  0  0  0  0  0  0  0  0  0  0
   11.9190  -14.5210   21.3030 C   0  0  0  0  0  0  0  0  0  0  0  0
   11.4410  -13.1890   21.2000 C   0  0  0  0  0  0  0  0  0  0  0  0
   10.9800  -12.7740   22.5580 N   0  0  0  0  0  0  0  0  0  0  0  0
   11.1730  -11.7290   23.3130 C   0  0  0  0  0  0  0  0  0  0  0  0
   11.8990  -10.7000   22.7900 N   0  0  0  0  0  0  0  0  0  0  0  0
   10.6820  -11.7010   24.4910 N   0  0  0  0  0  0  0  0  0  0  0  0
   16.8870  -13.8810   20.8120 N   0  0  0  0  0  0  0  0  0  0  0  0
   17.8720  -12.8090   21.3660 C   0  0  0  0  0  0  0  0  0  0  0  0
   19.1770  -12.8640   20.5860 C   0  0  0  0  0  0  0  0  0  0  0  0
   18.8650  -12.9240   19.0080 C   0  0  0  0  0  0  0  0  0  0  0  0
   17.7980  -14.0640   18.5390 C   0  0  0  0  0  0  0  0  0  0  0  0
   16.4600  -13.9480   19.3070 C   0  0  0  0  0  0  0  0  0  0  0  0
   20.1770  -13.1700   18.4840 C   0  0  0  0  0  0  0  0  0  0  0  0
   20.3190  -13.0360   16.9390 C   0  0  0  0  0  0  0  0  0  0  0  0
  2  1  2  0
 10  1  1  0
 14  1  1  0
  3  2  1  0
  4  3  2  0
  5  4  1  0
  6  5  1  0
 10  5  2  0
  7  6  2  0
 11  6  1  0
  8  7  1  0
  9  8  2  0
 10  9  1  0
 12 11  1  0
 13 11  1  0
 15 14  2  0
 16 14  2  0
 17 14  1  0
 18 17  1  0
 19 18  1  0
 21 18  1  0
 20 19  2  0
 28 19  1  0
 22 21  1  0
 23 22  1  0
 24 23  1  0
 25 24  1  0
 26 25  1  0
 27 25  2  0
 29 28  1  0
 33 28  1  0
 30 29  1  0
 31 30  1  0
 32 31  1  0
 34 31  1  0
 33 32  1  0
 35 34  1  0
M  CHG  1  27   1
A    1
C1
A    2
C2
A    3
C3
A    4
C4
A    5
C4A
A    6
C5
A    7
C6
A    8
C7
A    9
C8
A   10
C8A
A   11
N
A   12
CM1
A   13
CM2
A   14
S
A   15
O1S
A   16
O2S
A   17
N1
A   18
CA
A   19
C
A   20
O
A   21
CB
A   22
CG
A   23
CD
A   24
NE
A   25
CZ
A   26
NH1
A   27
NH2
A   28
N11
A   29
C21
A   30
C31
A   31
C41
A   32
C51
A   33
C61
A   34
C1'
A   35
C2'
M  END
>  <Id>  (97) 
1FPC_0ZI_H_371

>  <ChainId>  (97) 
H

>  <AsymId>  (97) 
D

>  <SeqNum>  (97) 
371

>  <Name>  (97) 
amino{[(4S)-4-({[5-(dimethylamino)naphthalen-1-yl]sulfonyl}amino)-5-(4-ethylpiperidin-1-yl)-5-oxopentyl]amino}methaniminium

>  <SystematicName>  (97) 
[amino-[[(4S)-4-[(5-dimethylaminonaphthalen-1-yl)sulfonylamino]-5-(4-ethylpiperidin-1-yl)-5-oxo-pentyl]amino]methylidene]azanium

>  <Synonyms>  (97) 
DAPA

>  <Type>  (97) 
peptide-like

>  <Formula>  (97) 
C25 H39 N6 O3 S

>  <ObservedFormula>  (97) 
C25 S N6 O3

>  <MolecularWeight>  (97) 
503.681

>  <ModifiedDate>  (97) 
2011-07-13

>  <Parent>  (97) 


>  <OneLetterCode>  (97) 


>  <SubcomponentList>  (97) 
ANS ARG EPI

>  <AmbiguousFlag>  (97) 
N

>  <InsertionCode>  (97) 


>  <InstanceId>  (97) 
1FPC_0ZI_H_371

>  <ChemCompId>  (97) 
0ZI

>  <PdbId>  (97) 
1FPC

>  <ResidueNumber>  (97) 
371

>  <InChI>  (97) 
InChI=1S/C25H38N6O3S/c1-4-18-13-16-31(17-14-18)24(32)21(10-7-15-28-25(26)27)29-35(33,34)23-12-6-8-19-20(23)9-5-11-22(19)30(2)3/h5-6,8-9,11-12,18,21,29H,4,7,10,13-17H2,1-3H3,(H4,26,27,28)/p+1/t21-/m0/s1

>  <InChIKey>  (97) 
IIYZWOIELWZHJV-NRFANRHFSA-O

>  <SMILES>  (97) 
CC[C@@H]1CCN(CC1)C(=O)[C@H](CCCNC(N)=[NH2+])N[S](=O)(=O)c2cccc3c(cccc23)N(C)C

>  <MissingHeavyAtoms>  (97) 
0

>  <Model>  (97) 
1

>  <AltIds>  (97) 


>  <pKI>  (97) 
7.0

>  <ChemblID>  (97) 
-

>  <standardized_canonical_smiles>  (97) 
CCC1CCN(C(=O)[C@H](CCCNC(N)=[NH2+])NS(=O)(=O)c2cccc3c(N(C)C)cccc23)CC1

$$$$
1YPM_RA4_H_5555
     RDKit          3D

 35 36  0  0  0  0  0  0  0  0999 V2000
   18.8680  -16.7720   24.1520 C   0  0  0  0  0  0  0  0  0  0  0  0
   19.5500  -17.1570   25.0960 O   0  0  0  0  0  0  0  0  0  0  0  0
   17.4640  -17.3180   24.0740 C   0  0  0  0  0  0  0  0  0  0  0  0
   17.0020  -18.0440   25.1790 C   0  0  0  0  0  0  0  0  0  0  0  0
   15.8510  -18.8250   25.0810 C   0  0  0  0  0  0  0  0  0  0  0  0
   15.1370  -18.8960   23.8810 C   0  0  0  0  0  0  0  0  0  0  0  0
   15.6020  -18.1690   22.7830 C   0  0  0  0  0  0  0  0  0  0  0  0
   16.7610  -17.3890   22.8730 C   0  0  0  0  0  0  0  0  0  0  0  0
   14.0240  -19.6640   23.8140 N   0  0  0  0  0  0  0  0  0  0  0  0
   13.5920  -20.3760   24.9460 O   0  0  0  0  0  0  0  0  0  0  0  0
   13.3790  -19.7570   22.7950 O   0  0  0  0  0  0  0  0  0  0  0  0
   19.2950  -15.8610   23.2690 N   0  0  0  0  0  0  0  0  0  0  0  0
   19.2630  -14.4480   23.5380 C   0  0  0  0  0  0  0  0  0  0  0  0
   18.6450  -13.6080   22.4430 C   0  0  0  0  0  0  0  0  0  0  0  0
   17.5980  -13.0770   22.8290 O   0  0  0  0  0  0  0  0  0  0  0  0
   20.5960  -13.8860   24.0180 C   0  0  0  0  0  0  0  0  0  0  0  0
   20.7810  -13.9070   25.5320 C   0  0  0  0  0  0  0  0  0  0  0  0
   21.3350  -12.5700   26.0560 C   0  0  0  0  0  0  0  0  0  0  0  0
   19.4910  -14.3100   26.2580 C   0  0  0  0  0  0  0  0  0  0  0  0
   19.3030  -13.0460   21.3950 N   0  0  0  0  0  0  0  0  0  0  0  0
   18.8720  -11.8020   20.7750 C   0  0  0  0  0  0  0  0  0  0  0  0
   17.4360  -11.8570   20.3190 C   0  0  0  0  0  0  0  0  0  0  0  0
   17.0640  -12.8040   19.6320 O   0  0  0  0  0  0  0  0  0  0  0  0
   19.7590  -11.7190   19.5110 C   0  0  0  0  0  0  0  0  0  0  0  0
   20.9400  -12.6850   19.7680 C   0  0  0  0  0  0  0  0  0  0  0  0
   20.3790  -13.7610   20.7350 C   0  0  0  0  0  0  0  0  0  0  0  0
   16.7930  -10.7580   20.4150 N   0  0  0  0  0  0  0  0  0  0  0  0
   15.4320  -10.9080   19.9330 C   0  0  0  0  0  0  0  0  0  0  0  0
   14.5560   -9.9490   20.7680 C   0  0  0  0  0  0  0  0  0  0  0  0
   13.2930  -10.6930   21.2130 C   0  0  0  0  0  0  0  0  0  0  0  0
   12.5840   -9.9020   22.3420 C   0  0  0  0  0  0  0  0  0  0  0  0
   11.9980  -10.9160   23.1740 N   0  0  0  0  0  0  0  0  0  0  0  0
   11.1720  -10.5770   24.0640 C   0  0  0  0  0  0  0  0  0  0  0  0
   10.8850   -9.3910   24.4190 N   0  0  0  0  0  0  0  0  0  0  0  0
   10.5860  -11.5620   24.6480 N   0  0  0  0  0  0  0  0  0  0  0  0
  2  1  2  0
  3  1  1  0
 12  1  1  0
  4  3  2  0
  8  3  1  0
  5  4  1  0
  6  5  2  0
  7  6  1  0
  9  6  1  0
  8  7  2  0
 10  9  1  0
 11  9  2  0
 13 12  1  0
 14 13  1  0
 16 13  1  0
 15 14  2  0
 20 14  1  0
 17 16  1  0
 18 17  1  0
 19 17  1  0
 21 20  1  0
 26 20  1  0
 22 21  1  0
 24 21  1  0
 23 22  2  0
 27 22  1  0
 25 24  1  0
 26 25  1  0
 28 27  1  0
 29 28  1  0
 30 29  1  0
 31 30  1  0
 32 31  1  0
 33 32  1  0
 34 33  2  0
 35 33  1  0
M  CHG  2   9   1  10  -1
A    1
C26
A    2
O25
A    3
C27
A    4
C28
A    5
C29
A    6
C30
A    7
C34
A    8
C35
A    9
N31
A   10
O32
A   11
O33
A   12
N24
A   13
C23
A   14
C18
A   15
O17
A   16
C22
A   17
C21
A   18
C19
A   19
C20
A   20
N16
A   21
C12
A   22
C11
A   23
O10
A   24
C13
A   25
C14
A   26
C15
A   27
N9
A   28
C8
A   29
C7
A   30
C6
A   31
C5
A   32
N4
A   33
C2
A   34
N1
A   35
N3
M  END
>  <Id>  (98) 
1YPM_RA4_H_5555

>  <ChainId>  (98) 
H

>  <AsymId>  (98) 
D

>  <SeqNum>  (98) 
5555

>  <Name>  (98) 
N-(4-NITROBENZOYL)-L-LEUCYL-N-(4-{[AMINO(IMINO)METHYL]AMINO}BUTYL)-L-PROLINAMIDE

>  <SystematicName>  (98) 
(2S)-N-(4-carbamimidamidobutyl)-1-[(2S)-4-methyl-2-[(4-nitrophenyl)carbonylamino]pentanoyl]pyrrolidine-2-carboxamide

>  <Synonyms>  (98) 
1-GUANIDINO-4-(N-NITRO-BENZOYLAMINO-L-LEUCYL-L-PROLYLAMINO)BUTANE

>  <Type>  (98) 
peptide-like

>  <Formula>  (98) 
C23 H35 N7 O5

>  <ObservedFormula>  (98) 
C23 N7 O5

>  <MolecularWeight>  (98) 
489.568

>  <ModifiedDate>  (98) 
2012-01-05

>  <Parent>  (98) 


>  <OneLetterCode>  (98) 


>  <SubcomponentList>  (98) 
4NB LEU PRO AG2

>  <AmbiguousFlag>  (98) 
N

>  <InsertionCode>  (98) 


>  <InstanceId>  (98) 
1YPM_RA4_H_5555

>  <ChemCompId>  (98) 
RA4

>  <PdbId>  (98) 
1YPM

>  <ResidueNumber>  (98) 
5555

>  <InChI>  (98) 
InChI=1S/C23H35N7O5/c1-15(2)14-18(28-20(31)16-7-9-17(10-8-16)30(34)35)22(33)29-13-5-6-19(29)21(32)26-11-3-4-12-27-23(24)25/h7-10,15,18-19H,3-6,11-14H2,1-2H3,(H,26,32)(H,28,31)(H4,24,25,27)/t18-,19-/m0/s1

>  <InChIKey>  (98) 
FIZYZWLGMGGGBJ-OALUTQOASA-N

>  <SMILES>  (98) 
[H]/N=C(\N)/NCCCCNC(=O)[C@@H]1CCCN1C(=O)[C@H](CC(C)C)NC(=O)c2ccc(cc2)[N+](=O)[O-]

>  <MissingHeavyAtoms>  (98) 
0

>  <Model>  (98) 
1

>  <AltIds>  (98) 


>  <pKI>  (98) 
5.72

>  <ChemblID>  (98) 
-

>  <standardized_canonical_smiles>  (98) 
CC(C)C[C@H](NC(=O)c1ccc([N+](=O)[O-])cc1)C(=O)N1CCC[C@H]1C(=O)NCCCCNC(=N)N

$$$$
1YPL_RA8_H_5555
     RDKit          3D

 34 35  0  0  0  0  0  0  0  0999 V2000
   18.5930  -15.5680   26.3620 C   0  0  0  0  0  0  0  0  0  0  0  0
   17.8540  -16.6820   25.1500 S   0  0  0  0  0  0  0  0  0  0  0  0
   19.8360  -14.8980   25.7950 C   0  0  0  0  0  0  0  0  0  0  0  0
   20.9650  -15.6490   25.4560 C   0  0  0  0  0  0  0  0  0  0  0  0
   22.0960  -15.0160   24.9340 C   0  0  0  0  0  0  0  0  0  0  0  0
   22.1000  -13.6280   24.7550 C   0  0  0  0  0  0  0  0  0  0  0  0
   20.9600  -12.8880   25.0870 C   0  0  0  0  0  0  0  0  0  0  0  0
   19.8380  -13.5130   25.6210 C   0  0  0  0  0  0  0  0  0  0  0  0
   16.7120  -17.2620   25.8250 O   0  0  0  0  0  0  0  0  0  0  0  0
   18.8900  -17.5160   24.5860 O   0  0  0  0  0  0  0  0  0  0  0  0
   17.3870  -15.7090   24.0980 N   0  0  0  0  0  0  0  0  0  0  0  0
   17.8900  -15.3410   22.8230 C   0  0  0  0  0  0  0  0  0  0  0  0
   17.8730  -13.9600   22.7300 C   0  0  0  0  0  0  0  0  0  0  0  0
   16.8110  -13.4010   22.9660 O   0  0  0  0  0  0  0  0  0  0  0  0
   17.3830  -16.1750   21.6410 C   0  0  0  0  0  0  0  0  0  0  0  0
   17.5400  -17.6880   21.8800 C   0  0  0  0  0  0  0  0  0  0  0  0
   17.5160  -18.4200   20.5320 C   0  0  0  0  0  0  0  0  0  0  0  0
   16.3640  -18.1860   22.7530 C   0  0  0  0  0  0  0  0  0  0  0  0
   18.6310  -13.4270   21.7400 N   0  0  0  0  0  0  0  0  0  0  0  0
   18.4070  -12.0600   21.2950 C   0  0  0  0  0  0  0  0  0  0  0  0
   17.0850  -11.9830   20.5700 C   0  0  0  0  0  0  0  0  0  0  0  0
   16.7450  -12.9060   19.8380 O   0  0  0  0  0  0  0  0  0  0  0  0
   19.6780  -11.8680   20.2650 C   0  0  0  0  0  0  0  0  0  0  0  0
   20.7760  -12.9130   20.5840 C   0  0  0  0  0  0  0  0  0  0  0  0
   20.1220  -13.9520   21.5360 C   0  0  0  0  0  0  0  0  0  0  0  0
   16.4410  -10.6310   20.5150 N   0  0  0  0  0  0  0  0  0  0  0  0
   15.1260  -10.7240   19.8560 C   0  0  0  0  0  0  0  0  0  0  0  0
   14.1400   -9.9290   20.7520 C   0  0  0  0  0  0  0  0  0  0  0  0
   13.4070  -10.9150   21.6700 C   0  0  0  0  0  0  0  0  0  0  0  0
   12.3270  -10.1480   22.4760 C   0  0  0  0  0  0  0  0  0  0  0  0
   11.6370  -11.1390   23.2540 N   0  0  0  0  0  0  0  0  0  0  0  0
   10.7730  -10.7530   24.0890 C   0  0  0  0  0  0  0  0  0  0  0  0
   10.5950   -9.5710   24.5350 N   0  0  0  0  0  0  0  0  0  0  0  0
   10.1750  -11.7040   24.7070 N   0  0  0  0  0  0  0  0  0  0  0  0
  2  1  1  0
  3  1  1  0
  9  2  2  0
 10  2  2  0
 11  2  1  0
  4  3  2  0
  8  3  1  0
  5  4  1  0
  6  5  2  0
  7  6  1  0
  8  7  2  0
 12 11  1  0
 13 12  1  0
 15 12  1  0
 14 13  2  0
 19 13  1  0
 16 15  1  0
 17 16  1  0
 18 16  1  0
 20 19  1  0
 25 19  1  0
 21 20  1  0
 23 20  1  0
 22 21  2  0
 26 21  1  0
 24 23  1  0
 25 24  1  0
 27 26  1  0
 28 27  1  0
 29 28  1  0
 30 29  1  0
 31 30  1  0
 32 31  1  0
 33 32  2  0
 34 32  1  0
A    1
C27
A    2
S26
A    3
C30
A    4
C31
A    5
C32
A    6
C33
A    7
C34
A    8
C35
A    9
O15
A   10
O29
A   11
N25
A   12
C19
A   13
C18
A   14
O24
A   15
C20
A   16
C21
A   17
C22
A   18
C23
A   19
N16
A   20
C11
A   21
C5
A   22
O12
A   23
C13
A   24
C14
A   25
C17
A   26
N10
A   27
C9
A   28
C8
A   29
C7
A   30
C6
A   31
N4
A   32
C2
A   33
N1
A   34
N3
M  END
>  <Id>  (99) 
1YPL_RA8_H_5555

>  <ChainId>  (99) 
H

>  <AsymId>  (99) 
F

>  <SeqNum>  (99) 
5555

>  <Name>  (99) 
N-(BENZYLSULFONYL)-L-LEUCYL-N-(4-{[AMINO(IMINO)METHYL]AMINO}BUTYL)-L-PROLINAMIDE

>  <SystematicName>  (99) 
(2S)-N-(4-carbamimidamidobutyl)-1-[(2S)-4-methyl-2-(phenylmethylsulfonylamino)pentanoyl]pyrrolidine-2-carboxamide

>  <Synonyms>  (99) 
1-GUANIDINO-4-(N-PHENYLMETHANESULFONYL-L-LEUCYL-L-PROLYLAMINO)BUTANE

>  <Type>  (99) 
peptide-like

>  <Formula>  (99) 
C23 H38 N6 O4 S

>  <ObservedFormula>  (99) 
C23 S N6 O4

>  <MolecularWeight>  (99) 
494.651

>  <ModifiedDate>  (99) 
2012-05-31

>  <Parent>  (99) 


>  <OneLetterCode>  (99) 


>  <SubcomponentList>  (99) 
PMS LEU PRO AG2

>  <AmbiguousFlag>  (99) 
N

>  <InsertionCode>  (99) 


>  <InstanceId>  (99) 
1YPL_RA8_H_5555

>  <ChemCompId>  (99) 
RA8

>  <PdbId>  (99) 
1YPL

>  <ResidueNumber>  (99) 
5555

>  <InChI>  (99) 
InChI=1S/C23H38N6O4S/c1-17(2)15-19(28-34(32,33)16-18-9-4-3-5-10-18)22(31)29-14-8-11-20(29)21(30)26-12-6-7-13-27-23(24)25/h3-5,9-10,17,19-20,28H,6-8,11-16H2,1-2H3,(H,26,30)(H4,24,25,27)/t19-,20-/m0/s1

>  <InChIKey>  (99) 
DSVCYWOHJLRGMK-PMACEKPBSA-N

>  <SMILES>  (99) 
[H]/N=C(/N)\NCCCCNC(=O)[C@@H]1CCCN1C(=O)[C@H](CC(C)C)NS(=O)(=O)Cc2ccccc2

>  <MissingHeavyAtoms>  (99) 
0

>  <Model>  (99) 
1

>  <AltIds>  (99) 


>  <pKI>  (99) 
4.97

>  <ChemblID>  (99) 
-

>  <standardized_canonical_smiles>  (99) 
CC(C)C[C@H](NS(=O)(=O)Cc1ccccc1)C(=O)N1CCC[C@H]1C(=O)NCCCCNC(=N)N

$$$$
3EGK_M18_H_601
     RDKit          3D

 28 29  0  0  0  0  0  0  0  0999 V2000
   13.9340  -10.4170   20.6290 C   0  0  0  0  0  0  0  0  0  0  0  0
   14.9190  -11.5260   20.8010 C   0  0  0  0  0  0  0  0  0  0  0  0
   15.0840  -12.3190   22.1040 O   0  0  0  0  0  0  0  0  0  0  0  0
   15.6860  -11.7850   19.6640 O   0  0  0  0  0  0  0  0  0  0  0  0
   16.4920  -12.9760   19.7510 C   0  0  0  0  0  0  0  0  0  0  0  0
   17.7270  -12.7070   20.6530 C   0  0  0  0  0  0  0  0  0  0  0  0
   18.7180  -11.7070   20.0080 C   0  0  0  0  0  0  0  0  0  0  0  0
   20.1290  -12.2110   20.3770 C   0  0  0  0  0  0  0  0  0  0  0  0
   19.9700  -13.7450   20.3340 C   0  0  0  0  0  0  0  0  0  0  0  0
   18.5810  -13.8930   20.7550 N   0  0  0  0  0  0  0  0  0  0  0  0
   18.2180  -15.0190   21.4400 C   0  0  0  0  0  0  0  0  0  0  0  0
   19.1740  -16.1940   21.6060 C   0  0  0  0  0  0  0  0  0  0  0  0
   19.9790  -16.0540   22.8170 N   0  0  0  0  0  0  0  0  0  0  0  0
   19.3760  -16.1830   24.0180 C   0  0  0  0  0  0  0  0  0  0  0  0
   19.7330  -15.2940   24.9400 O   0  0  0  0  0  0  0  0  0  0  0  0
   20.2410  -14.0690   24.7970 C   0  0  0  0  0  0  0  0  0  0  0  0
   19.9230  -13.3640   26.1210 C   0  0  0  0  0  0  0  0  0  0  0  0
   21.7470  -14.2700   24.6780 C   0  0  0  0  0  0  0  0  0  0  0  0
   19.7880  -13.1950   23.6880 C   0  0  0  0  0  0  0  0  0  0  0  0
   18.5540  -17.0720   24.2370 O   0  0  0  0  0  0  0  0  0  0  0  0
   17.3360  -14.9830   22.2930 O   0  0  0  0  0  0  0  0  0  0  0  0
   12.8970  -10.2950   21.7520 C   0  0  0  0  0  0  0  0  0  0  0  0
   12.9510   -9.1850   22.6030 C   0  0  0  0  0  0  0  0  0  0  0  0
   12.0350   -9.0400   23.6520 C   0  0  0  0  0  0  0  0  0  0  0  0
   12.1260   -7.6280   24.6940 Cl  0  0  0  0  0  0  0  0  0  0  0  0
   11.0170   -9.9820   23.8150 C   0  0  0  0  0  0  0  0  0  0  0  0
   10.9720  -11.1020   22.9800 C   0  0  0  0  0  0  0  0  0  0  0  0
   11.9220  -11.2780   21.9620 C   0  0  0  0  0  0  0  0  0  0  0  0
  2  1  1  0
 22  1  1  0
  3  2  2  0
  4  2  1  0
  5  4  1  0
  6  5  1  0
  7  6  1  0
 10  6  1  0
  8  7  1  0
  9  8  1  0
 10  9  1  0
 11 10  1  0
 12 11  1  0
 21 11  2  0
 13 12  1  0
 14 13  1  0
 15 14  1  0
 20 14  2  0
 16 15  1  0
 17 16  1  0
 18 16  1  0
 19 16  1  0
 23 22  2  0
 28 22  1  0
 24 23  1  0
 25 24  1  0
 26 24  2  0
 27 26  1  0
 28 27  2  0
A    1
C1
A    2
C2
A    3
O1
A    4
O2
A    5
C3
A    6
C4
A    7
C5
A    8
C6
A    9
C7
A   10
N1
A   11
C8
A   12
C9
A   13
N2
A   14
C10
A   15
O3
A   16
C11
A   17
C12
A   18
C13
A   19
C14
A   20
O4
A   21
O5
A   22
C15
A   23
C16
A   24
C17
A   25
CL1
A   26
C18
A   27
C19
A   28
C20
M  END
>  <Id>  (100) 
3EGK_M18_H_601

>  <ChainId>  (100) 
H

>  <AsymId>  (100) 
D

>  <SeqNum>  (100) 
601

>  <Name>  (100) 
{(2S)-1-[N-(tert-butoxycarbonyl)glycyl]pyrrolidin-2-yl}methyl (3-chlorophenyl)acetate

>  <SystematicName>  (100) 
[(2S)-1-[2-[(2-methylpropan-2-yl)oxycarbonylamino]ethanoyl]pyrrolidin-2-yl]methyl 2-(3-chlorophenyl)ethanoate

>  <Synonyms>  (100) 
(3-Chloro-Phenyl)-acetic acid (S)-1-(2-tert-butoxycarbonylamino-acetyl)-pyrrolidin-2-ylmethyl ester

>  <Type>  (100) 
NON-POLYMER

>  <Formula>  (100) 
C20 H27 Cl N2 O5

>  <ObservedFormula>  (100) 
C20 Cl N2 O5

>  <MolecularWeight>  (100) 
410.892

>  <ModifiedDate>  (100) 
2011-06-04

>  <Parent>  (100) 


>  <OneLetterCode>  (100) 


>  <SubcomponentList>  (100) 


>  <AmbiguousFlag>  (100) 
N

>  <InsertionCode>  (100) 


>  <InstanceId>  (100) 
3EGK_M18_H_601

>  <ChemCompId>  (100) 
M18

>  <PdbId>  (100) 
3EGK

>  <ResidueNumber>  (100) 
601

>  <InChI>  (100) 
InChI=1S/C20H27ClN2O5/c1-20(2,3)28-19(26)22-12-17(24)23-9-5-8-16(23)13-27-18(25)11-14-6-4-7-15(21)10-14/h4,6-7,10,16H,5,8-9,11-13H2,1-3H3,(H,22,26)/t16-/m0/s1

>  <InChIKey>  (100) 
ONXGIEJBNQLITK-INIZCTEOSA-N

>  <SMILES>  (100) 
CC(C)(C)OC(=O)NCC(=O)N1CCC[C@H]1COC(=O)Cc2cccc(c2)Cl

>  <MissingHeavyAtoms>  (100) 
0

>  <Model>  (100) 
1

>  <AltIds>  (100) 


>  <pKI>  (100) 
4.66

>  <ChemblID>  (100) 
-

>  <standardized_canonical_smiles>  (100) 
CC(C)(C)OC(=O)NCC(=O)N1CCC[C@H]1COC(=O)Cc1cccc(Cl)c1

$$$$
6EO8_2FN_H_307
     RDKit          3D

 47 51  0  0  0  0  0  0  0  0999 V2000
   15.5660   27.8390   11.6770 C   0  0  0  0  0  0  0  0  0  0  0  0
   16.4830   26.8860   11.4860 C   0  0  0  0  0  0  0  0  0  0  0  0
   16.3480   25.8470   12.3330 C   0  0  0  0  0  0  0  0  0  0  0  0
   15.3250   25.9940   13.1810 C   0  0  0  0  0  0  0  0  0  0  0  0
   14.3560   25.4380   15.2750 O   0  0  0  0  0  0  0  0  0  0  0  0
   14.9740   25.1150   14.1160 C   0  0  0  0  0  0  0  0  0  0  0  0
   10.5500   19.1970   13.3640 O   0  0  0  0  0  0  0  0  0  0  0  0
   10.9720   20.2360   12.8590 C   0  0  0  0  0  0  0  0  0  0  0  0
   10.0130   21.2720   12.2700 C   0  0  0  0  0  0  0  0  0  0  0  0
    9.8790   21.0470   10.7730 C   0  0  0  0  0  0  0  0  0  0  0  0
    8.8660   22.0260   10.2020 C   0  0  0  0  0  0  0  0  0  0  0  0
    7.5530   21.8600   10.8430 N   0  0  0  0  0  0  0  0  0  0  0  0
    6.5980   22.8130   10.2600 C   0  0  0  0  0  0  0  0  0  0  0  0
    6.8640   23.0100    8.7660 C   0  0  0  0  0  0  0  0  0  0  0  0
    5.1580   22.3400   10.4640 C   0  0  0  0  0  0  0  0  0  0  0  0
    7.6760   22.1100   12.2860 C   0  0  0  0  0  0  0  0  0  0  0  0
    8.6500   21.1340   12.9280 C   0  0  0  0  0  0  0  0  0  0  0  0
   12.2710   20.5550   12.7760 N   0  0  0  0  0  0  0  0  0  0  0  0
   13.1430   19.6840   13.2760 C   0  0  0  0  0  0  0  0  0  0  0  0
   13.8000   19.9820   14.4580 C   0  0  0  0  0  0  0  0  0  0  0  0
   13.5090   21.1730   15.0480 O   0  0  0  0  0  0  0  0  0  0  0  0
   14.7170   21.7870   15.5050 C   0  0  0  0  0  0  0  0  0  0  0  0
   14.6920   23.2790   15.1650 C   0  0  0  0  0  0  0  0  0  0  0  0
   14.1780   24.2210   15.9530 N   0  0  0  0  0  0  0  0  0  0  0  0
   15.1810   23.8040   14.0440 C   0  0  0  0  0  0  0  0  0  0  0  0
   14.5720   27.4120   12.8970 S   0  0  0  0  0  0  0  0  0  0  0  0
   15.4500   29.3060   10.7680 Cl  0  0  0  0  0  0  0  0  0  0  0  0
   13.3750   18.4940   12.6040 C   0  0  0  0  0  0  0  0  0  0  0  0
   14.2850   17.5790   13.1220 C   0  0  0  0  0  0  0  0  0  0  0  0
   14.9480   17.8770   14.3120 C   0  0  0  0  0  0  0  0  0  0  0  0
   14.7120   19.0750   14.9860 C   0  0  0  0  0  0  0  0  0  0  0  0
   12.6850   18.2860   11.4510 O   0  0  0  0  0  0  0  0  0  0  0  0
   12.0210   17.0210   11.5150 C   0  0  0  0  0  0  0  0  0  0  0  0
   11.2000   16.8110   10.2410 C   0  0  0  0  0  0  0  0  0  0  0  0
   11.5740   15.4690    9.6080 C   0  0  0  0  0  0  0  0  0  0  0  0
   12.9500   15.4910    9.2220 O   0  0  0  0  0  0  0  0  0  0  0  0
   13.0860   14.9540    7.8980 C   0  0  0  0  0  0  0  0  0  0  0  0
   12.7720   16.0370    6.8780 C   0  0  0  0  0  0  0  0  0  0  0  0
   11.4250   16.4950    7.0650 O   0  0  0  0  0  0  0  0  0  0  0  0
   12.9250   15.4720    5.4750 C   0  0  0  0  0  0  0  0  0  0  0  0
   12.7610   16.5260    4.5140 O   0  0  0  0  0  0  0  0  0  0  0  0
   14.3070   14.8580    5.3230 C   0  0  0  0  0  0  0  0  0  0  0  0
   14.4050   14.2080    4.0470 O   0  0  0  0  0  0  0  0  0  0  0  0
   14.5330   13.8400    6.4290 C   0  0  0  0  0  0  0  0  0  0  0  0
   14.4290   14.4890    7.7050 O   0  0  0  0  0  0  0  0  0  0  0  0
   15.9270   13.2260    6.2800 C   0  0  0  0  0  0  0  0  0  0  0  0
   15.9040   12.2360    5.2480 O   0  0  0  0  0  0  0  0  0  0  0  0
  2  1  2  0
 26  1  1  0
 27  1  1  0
  3  2  1  0
  4  3  2  0
  6  4  1  0
 26  4  1  0
  6  5  1  0
 24  5  1  0
 25  6  2  0
  8  7  2  0
  9  8  1  0
 18  8  1  0
 10  9  1  0
 17  9  1  0
 11 10  1  0
 12 11  1  0
 13 12  1  0
 16 12  1  0
 14 13  1  0
 15 13  1  0
 17 16  1  0
 19 18  1  0
 20 19  2  0
 28 19  1  0
 21 20  1  0
 31 20  1  0
 22 21  1  0
 23 22  1  0
 24 23  2  0
 25 23  1  0
 29 28  2  0
 32 28  1  0
 30 29  1  0
 31 30  2  0
 33 32  1  0
 34 33  1  0
 35 34  1  0
 36 35  1  0
 37 36  1  0
 38 37  1  0
 45 37  1  0
 39 38  1  0
 40 38  1  0
 41 40  1  0
 42 40  1  0
 43 42  1  0
 44 42  1  0
 45 44  1  0
 46 44  1  0
 47 46  1  0
A    1
C2
A    2
C4
A    3
C5
A    4
C6
A    5
O8
A    6
C7
A    7
O31
A    8
C21
A    9
C22
A   10
C30
A   11
C29
A   12
N25
A   13
C26
A   14
C28
A   15
C27
A   16
C24
A   17
C23
A   18
N20
A   19
C19
A   20
C14
A   21
O13
A   22
C12
A   23
C11
A   24
N9
A   25
C10
A   26
S3
A   27
CL1
A   28
C18
A   29
C17
A   30
C16
A   31
C15
A   32
O32
A   33
C33
A   34
C34
A   35
C35
A   36
O36
A   37
C37
A   38
C46
A   39
O47
A   40
C44
A   41
O45
A   42
C42
A   43
O42
A   44
C39
A   45
O38
A   46
C40
A   47
O41
M  END
>  <Id>  (101) 
6EO8_2FN_H_307

>  <ChainId>  (101) 
H

>  <AsymId>  (101) 
J

>  <SeqNum>  (101) 
307

>  <Name>  (101) 
N-(2-{[5-(5-chlorothiophen-2-yl)-1,2-oxazol-3-yl]methoxy}-6-[3-(beta-D-glucopyranosyloxy)propoxy]phenyl)-1-(propan-2-yl)piperidine-4-carboxamide

>  <SystematicName>  (101) 
N-[2-[[5-(5-chloranylthiophen-2-yl)-1,2-oxazol-3-yl]methoxy]-6-[3-[(2R,3R,4S,5S,6R)-6-(hydroxymethyl)-3,4,5-tris(oxidanyl)oxan-2-yl]oxypropoxy]phenyl]-1-propan-2-yl-piperidine-4-carboxamide

>  <Synonyms>  (101) 


>  <Type>  (101) 
NON-POLYMER

>  <Formula>  (101) 
C32 H42 Cl N3 O10 S

>  <ObservedFormula>  (101) 
C32 S Cl N3 O10

>  <MolecularWeight>  (101) 
696.208

>  <ModifiedDate>  (101) 
2013-10-25

>  <Parent>  (101) 


>  <OneLetterCode>  (101) 


>  <SubcomponentList>  (101) 


>  <AmbiguousFlag>  (101) 
N

>  <InsertionCode>  (101) 


>  <InstanceId>  (101) 
6EO8_2FN_H_307

>  <ChemCompId>  (101) 
2FN

>  <PdbId>  (101) 
6EO8

>  <ResidueNumber>  (101) 
307

>  <InChI>  (101) 
InChI=1S/C32H42ClN3O10S/c1-18(2)36-11-9-19(10-12-36)31(41)34-27-21(42-13-4-14-43-32-30(40)29(39)28(38)24(16-37)45-32)5-3-6-22(27)44-17-20-15-23(46-35-20)25-7-8-26(33)47-25/h3,5-8,15,18-19,24,28-30,32,37-40H,4,9-14,16-17H2,1-2H3,(H,34,41)/t24-,28-,29+,30-,32-/m1/s1

>  <InChIKey>  (101) 
OSTBNMJDSAVEFJ-JFJWUYLVSA-N

>  <SMILES>  (101) 
CC(C)N1CCC(CC1)C(=O)Nc2c(cccc2OCc3cc(on3)c4ccc(s4)Cl)OCCCO[C@H]5[C@@H]([C@H]([C@@H]([C@H](O5)CO)O)O)O

>  <MissingHeavyAtoms>  (101) 
0

>  <Model>  (101) 
1

>  <AltIds>  (101) 


>  <pKI>  (101) 
7.0

>  <ChemblID>  (101) 
-

>  <standardized_canonical_smiles>  (101) 
CC(C)N1CCC(C(=O)Nc2c(OCCCO[C@@H]3O[C@H](CO)[C@@H](O)[C@H](O)[C@H]3O)cccc2OCc2cc(-c3ccc(Cl)s3)on2)CC1

$$$$
4BAK_M67_B_1287
     RDKit          3D

 34 36  0  0  0  0  0  0  0  0999 V2000
   12.2020  -14.9350   19.4280 C   0  0  0  0  0  0  0  0  0  0  0  0
   12.0870  -15.8450   20.6530 C   0  0  0  0  0  0  0  0  0  0  0  0
   13.0710  -17.0160   20.5520 C   0  0  0  0  0  0  0  0  0  0  0  0
   14.4570  -16.5260   20.6160 N   0  0  0  0  0  0  0  0  0  0  0  0
   15.0830  -16.2070   21.7670 C   0  0  0  0  0  0  0  0  0  0  0  0
   14.5200  -16.3220   22.8490 O   0  0  0  0  0  0  0  0  0  0  0  0
   16.5080  -15.7250   21.6520 C   0  0  0  0  0  0  0  0  0  0  0  0
   17.0910  -15.4080   22.9770 N   0  0  0  0  0  0  0  0  0  0  0  0
   18.3430  -14.6140   22.9310 C   0  0  0  0  0  0  0  0  0  0  0  0
   18.8730  -14.3340   24.3520 C   0  0  0  0  0  0  0  0  0  0  0  0
   19.1140  -15.6620   25.0910 C   0  0  0  0  0  0  0  0  0  0  0  0
   19.6460  -15.3870   26.5060 C   0  0  0  0  0  0  0  0  0  0  0  0
   20.9690  -14.6080   26.4450 C   0  0  0  0  0  0  0  0  0  0  0  0
   20.7810  -13.2760   25.7050 C   0  0  0  0  0  0  0  0  0  0  0  0
   20.1910  -13.5270   24.3030 C   0  0  0  0  0  0  0  0  0  0  0  0
   18.0160  -13.3180   22.2410 C   0  0  0  0  0  0  0  0  0  0  0  0
   16.9410  -12.7670   22.4860 O   0  0  0  0  0  0  0  0  0  0  0  0
   18.8320  -12.7660   21.3190 N   0  0  0  0  0  0  0  0  0  0  0  0
   20.1090  -13.0610   20.6390 C   0  0  0  0  0  0  0  0  0  0  0  0
   19.7980  -12.0240   19.5530 C   0  0  0  0  0  0  0  0  0  0  0  0
   18.6350  -11.5930   20.4600 C   0  0  0  0  0  0  0  0  0  0  0  0
   17.2470  -11.7400   19.8720 C   0  0  0  0  0  0  0  0  0  0  0  0
   16.9370  -12.8030   19.3720 O   0  0  0  0  0  0  0  0  0  0  0  0
   16.3190  -10.7780   20.0260 N   0  0  0  0  0  0  0  0  0  0  0  0
   14.9780  -11.0060   19.4760 C   0  0  0  0  0  0  0  0  0  0  0  0
   13.9980  -10.9420   20.6110 C   0  0  0  0  0  0  0  0  0  0  0  0
   13.7170  -12.0860   21.3400 C   0  0  0  0  0  0  0  0  0  0  0  0
   12.8140  -12.0210   22.3880 C   0  0  0  0  0  0  0  0  0  0  0  0
   12.2070  -10.7950   22.7170 C   0  0  0  0  0  0  0  0  0  0  0  0
   12.4930   -9.6410   21.9700 C   0  0  0  0  0  0  0  0  0  0  0  0
   13.4110   -9.7240   20.9350 C   0  0  0  0  0  0  0  0  0  0  0  0
   11.2070  -10.7410   23.8140 C   0  0  0  0  0  0  0  0  0  0  0  0
   10.5160  -11.8100   24.1380 N   0  0  0  0  0  0  0  0  0  0  0  0
   10.9460   -9.5540   24.4550 N   0  0  0  0  0  0  0  0  0  0  0  0
  2  1  1  0
  3  2  1  0
  4  3  1  0
  5  4  1  0
  6  5  2  0
  7  5  1  0
  8  7  1  0
  9  8  1  0
 10  9  1  0
 16  9  1  0
 11 10  1  0
 15 10  1  0
 12 11  1  0
 13 12  1  0
 14 13  1  0
 15 14  1  0
 17 16  2  0
 18 16  1  0
 19 18  1  0
 21 18  1  0
 20 19  1  0
 21 20  1  0
 22 21  1  0
 23 22  2  0
 24 22  1  0
 25 24  1  0
 26 25  1  0
 27 26  2  0
 31 26  1  0
 28 27  1  0
 29 28  2  0
 30 29  1  0
 32 29  1  0
 31 30  2  0
 33 32  2  0
 34 32  1  0
A    1
C1
A    2
C2
A    3
C3
A    4
N4
A    5
C5
A    6
O6
A    7
C7
A    8
N8
A    9
C9
A   10
C11
A   11
C12
A   12
C13
A   13
C14
A   14
C15
A   15
C16
A   16
C17
A   17
O18
A   18
N19
A   19
C20
A   20
C21
A   21
C22
A   22
C24
A   23
O25
A   24
N26
A   25
C27
A   26
C28
A   27
C29
A   28
C30
A   29
C31
A   30
C32
A   31
C33
A   32
C34
A   33
N35
A   34
N36
M  END
>  <Id>  (102) 
4BAK_M67_B_1287

>  <ChainId>  (102) 
B

>  <AsymId>  (102) 
E

>  <SeqNum>  (102) 
1287

>  <Name>  (102) 
(2S)-N-(4-CARBAMIMIDOYLBENZYL)-1-[(2R)-2-CYCLOHEXYL-2-{[2-OXO-2-(PROPYLAMINO)ETHYL]AMINO}ACETYL]AZETIDINE-2-CARBOXAMIDE

>  <SystematicName>  (102) 
(2S)-N-[(4-carbamimidoylphenyl)methyl]-1-[(2R)-2-cyclohexyl-2-[[2-oxidanylidene-2-(propylamino)ethyl]amino]ethanoyl]azetidine-2-carboxamide

>  <Synonyms>  (102) 


>  <Type>  (102) 
non-polymer

>  <Formula>  (102) 
C25 H38 N6 O3

>  <ObservedFormula>  (102) 
C25 N6 O3

>  <MolecularWeight>  (102) 
470.608

>  <ModifiedDate>  (102) 
2014-09-05

>  <Parent>  (102) 


>  <OneLetterCode>  (102) 


>  <SubcomponentList>  (102) 


>  <AmbiguousFlag>  (102) 
N

>  <InsertionCode>  (102) 


>  <InstanceId>  (102) 
4BAK_M67_B_1287

>  <ChemCompId>  (102) 
M67

>  <PdbId>  (102) 
4BAK

>  <ResidueNumber>  (102) 
1287

>  <InChI>  (102) 
InChI=1S/C25H38N6O3/c1-2-13-28-21(32)16-29-22(18-6-4-3-5-7-18)25(34)31-14-12-20(31)24(33)30-15-17-8-10-19(11-9-17)23(26)27/h8-11,18,20,22,29H,2-7,12-16H2,1H3,(H3,26,27)(H,28,32)(H,30,33)/t20-,22+/m0/s1

>  <InChIKey>  (102) 
YEOMROVWVBLQCS-RBBKRZOGSA-N

>  <SMILES>  (102) 
[H]/N=C(/c1ccc(cc1)CNC(=O)[C@@H]2CCN2C(=O)[C@@H](C3CCCCC3)NCC(=O)NCCC)\N

>  <MissingHeavyAtoms>  (102) 
0

>  <Model>  (102) 
1

>  <AltIds>  (102) 


>  <pKI>  (102) 
8.91

>  <ChemblID>  (102) 
-

>  <standardized_canonical_smiles>  (102) 
CCCNC(=O)CN[C@@H](C(=O)N1CC[C@H]1C(=O)NCc1ccc(C(=N)N)cc1)C1CCCCC1

$$$$
1Z71_L17_A_1001
     RDKit          3D

 33 35  0  0  0  0  0  0  0  0999 V2000
   20.0150  -14.4520   25.9800 C   0  0  0  0  0  0  0  0  0  0  0  0
   20.0080  -15.8630   25.6670 C   0  0  0  0  0  0  0  0  0  0  0  0
   21.1590  -16.4500   25.0960 N   0  0  0  0  0  0  0  0  0  0  0  0
   22.3270  -15.7730   24.7830 C   0  0  0  0  0  0  0  0  0  0  0  0
   22.3750  -14.3660   25.0730 C   0  0  0  0  0  0  0  0  0  0  0  0
   21.2230  -13.7280   25.6780 C   0  0  0  0  0  0  0  0  0  0  0  0
   18.7320  -16.6920   25.8170 C   0  0  0  0  0  0  0  0  0  0  0  0
   18.0480  -17.0120   24.5060 C   0  0  0  0  0  0  0  0  0  0  0  0
   17.5600  -15.8210   23.7490 N   0  0  0  0  0  0  0  0  0  0  0  0
   18.2560  -15.2230   22.6700 C   0  0  0  0  0  0  0  0  0  0  0  0
   17.6350  -14.1230   22.1380 N   0  0  0  0  0  0  0  0  0  0  0  0
   18.2380  -13.4140   21.1620 C   0  0  0  0  0  0  0  0  0  0  0  0
   19.5230  -13.8110   20.6900 C   0  0  0  0  0  0  0  0  0  0  0  0
   20.1930  -14.9530   21.2110 C   0  0  0  0  0  0  0  0  0  0  0  0
   19.5470  -15.6850   22.2320 C   0  0  0  0  0  0  0  0  0  0  0  0
   16.3940  -13.7880   22.6310 O   0  0  0  0  0  0  0  0  0  0  0  0
   20.2830  -12.9060   19.4560 Cl  0  0  0  0  0  0  0  0  0  0  0  0
   17.5180  -12.1950   20.6020 C   0  0  0  0  0  0  0  0  0  0  0  0
   16.0640  -12.5320   20.2690 C   0  0  0  0  0  0  0  0  0  0  0  0
   15.1880  -11.5910   20.6320 N   0  0  0  0  0  0  0  0  0  0  0  0
   15.7710  -13.5730   19.6870 O   0  0  0  0  0  0  0  0  0  0  0  0
   13.7570  -11.8680   20.4670 C   0  0  0  0  0  0  0  0  0  0  0  0
   12.9560  -11.5960   21.6780 C   0  0  0  0  0  0  0  0  0  0  0  0
   13.1500  -10.3940   22.4510 C   0  0  0  0  0  0  0  0  0  0  0  0
   12.2640  -10.1810   23.5720 C   0  0  0  0  0  0  0  0  0  0  0  0
   11.2270  -11.1410   23.9240 C   0  0  0  0  0  0  0  0  0  0  0  0
   11.9040  -12.5330   22.0220 C   0  0  0  0  0  0  0  0  0  0  0  0
   11.0180  -12.3300   23.1430 C   0  0  0  0  0  0  0  0  0  0  0  0
   19.0440  -17.9000   26.3340 F   0  0  0  0  0  0  0  0  0  0  0  0
   17.8050  -16.0930   26.6000 F   0  0  0  0  0  0  0  0  0  0  0  0
   12.4230   -8.7350   24.4950 Cl  0  0  0  0  0  0  0  0  0  0  0  0
   21.1140  -17.7710   24.7870 O   0  0  0  0  0  0  0  0  0  0  0  0
   13.1740  -11.0330   19.3310 C   0  0  0  0  0  0  0  0  0  0  0  0
  2  1  2  0
  6  1  1  0
  3  2  1  0
  7  2  1  0
  4  3  2  0
 32  3  1  0
  5  4  1  0
  6  5  2  0
  8  7  1  0
 29  7  1  0
 30  7  1  0
  9  8  1  0
 10  9  1  0
 11 10  2  0
 15 10  1  0
 12 11  1  0
 16 11  1  0
 13 12  2  0
 18 12  1  0
 14 13  1  0
 17 13  1  0
 15 14  2  0
 19 18  1  0
 20 19  1  0
 21 19  2  0
 22 20  1  0
 23 22  1  0
 33 22  1  0
 24 23  2  0
 27 23  1  0
 25 24  1  0
 26 25  2  0
 31 25  1  0
 28 26  1  0
 28 27  2  0
M  CHG  4   3   1  11   1  16  -1  32  -1
A    1
C8
A    2
C2
A    3
N1
A    4
C4
A    5
C5
A    6
C6
A    7
C11
A    8
C1
A    9
N18
A   10
C21
A   11
N2
A   12
C10
A   13
C24
A   14
C25
A   15
C3
A   16
O28
A   17
CL2
A   18
C33
A   19
C34
A   20
N37
A   21
O38
A   22
C39
A   23
C40
A   24
C43
A   25
C44
A   26
C45
A   27
C50
A   28
C9
A   29
F1
A   30
F2
A   31
CL1
A   32
O1
A   33
C7
M  END
>  <Id>  (103) 
1Z71_L17_A_1001

>  <ChainId>  (103) 
A

>  <AsymId>  (103) 
C

>  <SeqNum>  (103) 
1001

>  <Name>  (103) 
L17

>  <SystematicName>  (103) 
2-[3-chloro-6-[[2,2-difluoro-2-(1-oxidopyridin-1-ium-2-yl)ethyl]amino]-1-oxido-pyridin-1-ium-2-yl]-N-[(1R)-1-(3-chlorophenyl)ethyl]ethanamide

>  <Synonyms>  (103) 
2-(3-CHLORO-6-{[2,2-DIFLUORO-2-(1-OXIDOPYRIDIN-2-YL)ETHYL]AMINO}-1-OXIDOPYRIDIN-2-YL)-N-[1-(3-CHLOROPHENYL)ETHYL]ACETAMIDE

>  <Type>  (103) 
NON-POLYMER

>  <Formula>  (103) 
C22 H20 Cl2 F2 N4 O3

>  <ObservedFormula>  (103) 
C22 F2 Cl2 N4 O3

>  <MolecularWeight>  (103) 
497.322

>  <ModifiedDate>  (103) 
2011-06-04

>  <Parent>  (103) 


>  <OneLetterCode>  (103) 


>  <SubcomponentList>  (103) 


>  <AmbiguousFlag>  (103) 
N

>  <InsertionCode>  (103) 


>  <InstanceId>  (103) 
1Z71_L17_A_1001

>  <ChemCompId>  (103) 
L17

>  <PdbId>  (103) 
1Z71

>  <ResidueNumber>  (103) 
1001

>  <InChI>  (103) 
InChI=1S/C22H20Cl2F2N4O3/c1-14(15-5-4-6-16(23)11-15)28-21(31)12-18-17(24)8-9-20(30(18)33)27-13-22(25,26)19-7-2-3-10-29(19)32/h2-11,14,27H,12-13H2,1H3,(H,28,31)/t14-/m1/s1

>  <InChIKey>  (103) 
ISTCYDGUBPNUDF-CQSZACIVSA-N

>  <SMILES>  (103) 
C[C@H](c1cccc(c1)Cl)NC(=O)Cc2c(ccc([n+]2[O-])NCC(c3cccc[n+]3[O-])(F)F)Cl

>  <MissingHeavyAtoms>  (103) 
0

>  <Model>  (103) 
1

>  <AltIds>  (103) 


>  <pKI>  (103) 
9.18

>  <ChemblID>  (103) 
-

>  <standardized_canonical_smiles>  (103) 
C[C@@H](NC(=O)Cc1c(Cl)ccc(NCC(F)(F)c2cccc[n+]2[O-])[n+]1[O-])c1cccc(Cl)c1

$$$$
4BAQ_M4Z_B_1287
     RDKit          3D

 33 35  0  0  0  0  0  0  0  0999 V2000
   18.7700  -14.5310   24.2010 C   0  0  0  0  0  0  0  0  0  0  0  0
   18.8900  -15.8540   24.9790 C   0  0  0  0  0  0  0  0  0  0  0  0
   19.4250  -15.5690   26.3880 C   0  0  0  0  0  0  0  0  0  0  0  0
   20.8250  -14.9400   26.2940 C   0  0  0  0  0  0  0  0  0  0  0  0
   20.7250  -13.5770   25.5940 C   0  0  0  0  0  0  0  0  0  0  0  0
   20.1110  -13.7580   24.1860 C   0  0  0  0  0  0  0  0  0  0  0  0
   17.0040  -15.5640   22.7950 N   0  0  0  0  0  0  0  0  0  0  0  0
   18.2700  -14.7950   22.7660 C   0  0  0  0  0  0  0  0  0  0  0  0
   17.9940  -13.4660   22.1110 C   0  0  0  0  0  0  0  0  0  0  0  0
   16.9890  -12.8630   22.4510 O   0  0  0  0  0  0  0  0  0  0  0  0
   18.8060  -12.9080   21.1800 N   0  0  0  0  0  0  0  0  0  0  0  0
   18.6340  -11.7030   20.3590 C   0  0  0  0  0  0  0  0  0  0  0  0
   17.2390  -11.8210   19.7690 C   0  0  0  0  0  0  0  0  0  0  0  0
   16.8970  -12.8940   19.2870 O   0  0  0  0  0  0  0  0  0  0  0  0
   16.3370  -10.8280   19.9420 N   0  0  0  0  0  0  0  0  0  0  0  0
   14.9700  -11.0130   19.4510 C   0  0  0  0  0  0  0  0  0  0  0  0
   14.0140  -11.0280   20.6150 C   0  0  0  0  0  0  0  0  0  0  0  0
   13.4600   -9.8210   21.0260 C   0  0  0  0  0  0  0  0  0  0  0  0
   12.5830   -9.7860   22.0930 C   0  0  0  0  0  0  0  0  0  0  0  0
   12.2690  -10.9790   22.7660 C   0  0  0  0  0  0  0  0  0  0  0  0
   12.8180  -12.2040   22.3360 C   0  0  0  0  0  0  0  0  0  0  0  0
   13.7050  -12.2160   21.2610 C   0  0  0  0  0  0  0  0  0  0  0  0
   11.2680  -10.9270   23.8550 C   0  0  0  0  0  0  0  0  0  0  0  0
   10.5420  -11.9780   24.1770 N   0  0  0  0  0  0  0  0  0  0  0  0
   11.0360   -9.7280   24.4760 N   0  0  0  0  0  0  0  0  0  0  0  0
   19.7960  -12.1120   19.4430 C   0  0  0  0  0  0  0  0  0  0  0  0
   20.0340  -13.2570   20.4360 C   0  0  0  0  0  0  0  0  0  0  0  0
   16.3660  -15.8900   21.4900 C   0  0  0  0  0  0  0  0  0  0  0  0
   12.0350  -15.5660   19.4200 C   0  0  0  0  0  0  0  0  0  0  0  0
   14.8900  -16.2140   21.6700 C   0  0  0  0  0  0  0  0  0  0  0  0
   14.4460  -16.5720   22.7540 O   0  0  0  0  0  0  0  0  0  0  0  0
   12.6200  -16.3420   20.6020 C   0  0  0  0  0  0  0  0  0  0  0  0
   14.0720  -16.1010   20.5930 N   0  0  0  0  0  0  0  0  0  0  0  0
  2  1  1  0
  6  1  1  0
  8  1  1  0
  3  2  1  0
  4  3  1  0
  5  4  1  0
  6  5  1  0
  8  7  1  0
 28  7  1  0
  9  8  1  0
 10  9  2  0
 11  9  1  0
 12 11  1  0
 27 11  1  0
 13 12  1  0
 26 12  1  0
 14 13  2  0
 15 13  1  0
 16 15  1  0
 17 16  1  0
 18 17  2  0
 22 17  1  0
 19 18  1  0
 20 19  2  0
 21 20  1  0
 23 20  1  0
 22 21  2  0
 24 23  2  0
 25 23  1  0
 27 26  1  0
 30 28  1  0
 32 29  1  0
 31 30  2  0
 33 30  1  0
 33 32  1  0
A    1
C1
A    2
C2
A    3
C3
A    4
C4
A    5
C5
A    6
C6
A    7
N7
A    8
C8
A    9
C9
A   10
O0
A   11
N11
A   12
C12
A   13
C13
A   14
O14
A   15
N15
A   16
C16
A   17
C17
A   18
C22
A   19
C21
A   20
C20
A   21
C19
A   22
C18
A   23
C23
A   24
N24
A   25
N25
A   26
C26
A   27
C27
A   28
C28
A   29
C10
A   30
C29
A   31
O30
A   32
C24
A   33
N3
M  END
>  <Id>  (104) 
4BAQ_M4Z_B_1287

>  <ChainId>  (104) 
B

>  <AsymId>  (104) 
E

>  <SeqNum>  (104) 
1287

>  <Name>  (104) 
(2S)-N-[(4-carbamimidoylphenyl)methyl]-1-[(2R)-2-cyclohexyl-2-[[2-(ethylamino)-2-oxidanylidene-ethyl]amino]ethanoyl]azetidine-2-carboxamide

>  <SystematicName>  (104) 
(2S)-N-[(4-carbamimidoylphenyl)methyl]-1-[(2R)-2-cyclohexyl-2-[[2-(ethylamino)-2-oxidanylidene-ethyl]amino]ethanoyl]azetidine-2-carboxamide

>  <Synonyms>  (104) 


>  <Type>  (104) 
non-polymer

>  <Formula>  (104) 
C24 H36 N6 O3

>  <ObservedFormula>  (104) 
C24 N6 O3

>  <MolecularWeight>  (104) 
456.581

>  <ModifiedDate>  (104) 
2014-09-05

>  <Parent>  (104) 


>  <OneLetterCode>  (104) 


>  <SubcomponentList>  (104) 


>  <AmbiguousFlag>  (104) 
N

>  <InsertionCode>  (104) 


>  <InstanceId>  (104) 
4BAQ_M4Z_B_1287

>  <ChemCompId>  (104) 
M4Z

>  <PdbId>  (104) 
4BAQ

>  <ResidueNumber>  (104) 
1287

>  <InChI>  (104) 
InChI=1S/C24H36N6O3/c1-2-27-20(31)15-28-21(17-6-4-3-5-7-17)24(33)30-13-12-19(30)23(32)29-14-16-8-10-18(11-9-16)22(25)26/h8-11,17,19,21,28H,2-7,12-15H2,1H3,(H3,25,26)(H,27,31)(H,29,32)/t19-,21+/m0/s1

>  <InChIKey>  (104) 
HLAUGXKHYADQDF-PZJWPPBQSA-N

>  <SMILES>  (104) 
[H]/N=C(/c1ccc(cc1)CNC(=O)[C@@H]2CCN2C(=O)[C@@H](C3CCCCC3)NCC(=O)NCC)\N

>  <MissingHeavyAtoms>  (104) 
0

>  <Model>  (104) 
1

>  <AltIds>  (104) 


>  <pKI>  (104) 
9.01

>  <ChemblID>  (104) 
-

>  <standardized_canonical_smiles>  (104) 
CCNC(=O)CN[C@@H](C(=O)N1CC[C@H]1C(=O)NCc1ccc(C(=N)N)cc1)C1CCCCC1

$$$$
1KTS_C24_B_999
     RDKit          3D

 37 40  0  0  0  0  0  0  0  0999 V2000
   14.3240  -11.7530   20.7750 C   0  0  0  0  0  0  0  0  0  0  0  0
   15.3200  -11.9160   19.9120 N   0  0  0  0  0  0  0  0  0  0  0  0
   16.7250  -11.6230   20.1950 C   0  0  0  0  0  0  0  0  0  0  0  0
   17.5050  -12.6650   21.0010 C   0  0  0  0  0  0  0  0  0  0  0  0
   16.8850  -13.4190   21.9150 N   0  0  0  0  0  0  0  0  0  0  0  0
   17.9320  -14.1180   22.3800 C   0  0  0  0  0  0  0  0  0  0  0  0
   17.8540  -15.0490   23.3690 C   0  0  0  0  0  0  0  0  0  0  0  0
   18.9510  -15.7210   23.8070 C   0  0  0  0  0  0  0  0  0  0  0  0
   18.7870  -16.6720   24.8760 C   0  0  0  0  0  0  0  0  0  0  0  0
   17.7890  -17.4000   24.7800 O   0  0  0  0  0  0  0  0  0  0  0  0
   19.5950  -16.7250   25.9630 N   0  0  0  0  0  0  0  0  0  0  0  0
   20.5640  -15.8050   26.1390 C   0  0  0  0  0  0  0  0  0  0  0  0
   20.2100  -14.6170   26.7010 C   0  0  0  0  0  0  0  0  0  0  0  0
   21.0900  -13.5420   26.7530 C   0  0  0  0  0  0  0  0  0  0  0  0
   22.3540  -13.6700   26.2250 C   0  0  0  0  0  0  0  0  0  0  0  0
   22.7360  -14.8770   25.6550 C   0  0  0  0  0  0  0  0  0  0  0  0
   21.7980  -15.9490   25.6240 N   0  0  0  0  0  0  0  0  0  0  0  0
   19.3950  -17.7270   27.0130 C   0  0  0  0  0  0  0  0  0  0  0  0
   18.2980  -17.3390   27.9930 C   0  0  0  0  0  0  0  0  0  0  0  0
   18.2060  -18.2710   29.1880 C   0  0  0  0  0  0  0  0  0  0  0  0
   18.7690  -17.9910   30.2470 O   0  0  0  0  0  0  0  0  0  0  0  0
   17.4130  -19.4890   29.1150 O   0  0  0  0  0  0  0  0  0  0  0  0
   18.1730  -20.6630   28.7110 C   0  0  0  0  0  0  0  0  0  0  0  0
   19.0210  -21.1670   29.8700 C   0  0  0  0  0  0  0  0  0  0  0  0
   20.1390  -15.3510   23.1550 C   0  0  0  0  0  0  0  0  0  0  0  0
   20.2270  -14.3910   22.1370 C   0  0  0  0  0  0  0  0  0  0  0  0
   19.0860  -13.7820   21.7780 C   0  0  0  0  0  0  0  0  0  0  0  0
   18.8310  -12.8370   20.8570 N   0  0  0  0  0  0  0  0  0  0  0  0
   19.7610  -12.1870   19.9180 C   0  0  0  0  0  0  0  0  0  0  0  0
   14.3140  -10.7750   21.6870 C   0  0  0  0  0  0  0  0  0  0  0  0
   13.2730  -10.7000   22.6130 C   0  0  0  0  0  0  0  0  0  0  0  0
   12.2660  -11.6010   22.6330 C   0  0  0  0  0  0  0  0  0  0  0  0
   11.2710  -11.5560   23.5970 C   0  0  0  0  0  0  0  0  0  0  0  0
   11.2420  -10.5860   24.5090 N   0  0  0  0  0  0  0  0  0  0  0  0
   10.3280  -12.4910   23.6340 N   0  0  0  0  0  0  0  0  0  0  0  0
   12.2990  -12.5630   21.6970 C   0  0  0  0  0  0  0  0  0  0  0  0
   13.3350  -12.6420   20.7700 C   0  0  0  0  0  0  0  0  0  0  0  0
  2  1  1  0
 30  1  2  0
 37  1  1  0
  3  2  1  0
  4  3  1  0
  5  4  2  0
 28  4  1  0
  6  5  1  0
  7  6  2  0
 27  6  1  0
  8  7  1  0
  9  8  1  0
 25  8  2  0
 10  9  2  0
 11  9  1  0
 12 11  1  0
 18 11  1  0
 13 12  2  0
 17 12  1  0
 14 13  1  0
 15 14  2  0
 16 15  1  0
 17 16  2  0
 19 18  1  0
 20 19  1  0
 21 20  2  0
 22 20  1  0
 23 22  1  0
 24 23  1  0
 26 25  1  0
 27 26  2  0
 28 27  1  0
 29 28  1  0
 31 30  1  0
 32 31  2  0
 33 32  1  0
 36 32  1  0
 34 33  2  0
 35 33  1  0
 37 36  2  0
A    1
C2
A    2
N10
A    3
C11
A    4
C12
A    5
N16
A    6
C15
A    7
C18
A    8
C19
A    9
C40
A   10
O21
A   11
N22
A   12
C23
A   13
C24
A   14
C25
A   15
C26
A   16
C27
A   17
N28
A   18
C29
A   19
C30
A   20
C31
A   21
O32
A   22
O33
A   23
C34
A   24
C35
A   25
C20
A   26
C21
A   27
C14
A   28
N13
A   29
C17
A   30
C3
A   31
C4
A   32
C5
A   33
C7
A   34
N9
A   35
N8
A   36
C6
A   37
C1
M  END
>  <Id>  (105) 
1KTS_C24_B_999

>  <ChainId>  (105) 
B

>  <AsymId>  (105) 
D

>  <SeqNum>  (105) 
999

>  <Name>  (105) 
3-({2-[(4-CARBAMIMIDOYL-PHENYLAMINO)-METHYL]-3-METHYL-3H-BENZOIMIDAZOLE-5-CARBONYL}-PYRIDIN-2-YL-AMINO)-PROPIONIC ACID ETHYL ESTER

>  <SystematicName>  (105) 
ethyl 3-[[2-[[(4-carbamimidoylphenyl)amino]methyl]-1-methyl-benzimidazol-5-yl]carbonyl-pyridin-2-yl-amino]propanoate

>  <Synonyms>  (105) 


>  <Type>  (105) 
NON-POLYMER

>  <Formula>  (105) 
C27 H29 N7 O3

>  <ObservedFormula>  (105) 
C27 N7 O3

>  <MolecularWeight>  (105) 
499.564

>  <ModifiedDate>  (105) 
2011-06-04

>  <Parent>  (105) 


>  <OneLetterCode>  (105) 


>  <SubcomponentList>  (105) 


>  <AmbiguousFlag>  (105) 
N

>  <InsertionCode>  (105) 


>  <InstanceId>  (105) 
1KTS_C24_B_999

>  <ChemCompId>  (105) 
C24

>  <PdbId>  (105) 
1KTS

>  <ResidueNumber>  (105) 
999

>  <InChI>  (105) 
InChI=1S/C27H29N7O3/c1-3-37-25(35)13-15-34(23-6-4-5-14-30-23)27(36)19-9-12-22-21(16-19)32-24(33(22)2)17-31-20-10-7-18(8-11-20)26(28)29/h4-12,14,16,31H,3,13,15,17H2,1-2H3,(H3,28,29)

>  <InChIKey>  (105) 
BGLLICFSSKPUMR-UHFFFAOYSA-N

>  <SMILES>  (105) 
CCOC(=O)CCN(c1ccccn1)C(=O)c2ccc3c(c2)nc(n3C)CNc4ccc(cc4)C(=N)N

>  <MissingHeavyAtoms>  (105) 
0

>  <Model>  (105) 
1

>  <AltIds>  (105) 


>  <pKI>  (105) 
8.35

>  <ChemblID>  (105) 
-

>  <standardized_canonical_smiles>  (105) 
CCOC(=O)CCN(C(=O)c1ccc2c(c1)nc(CNc1ccc(C(=N)N)cc1)n2C)c1ccccn1

$$$$
1G30_T87_B_1
     RDKit          3D

 39 43  0  0  0  0  0  0  0  0999 V2000
   10.2730  -12.6880   23.9230 N   0  0  0  0  0  0  0  0  0  0  0  0
   10.8730  -10.6680   24.4990 N   0  0  0  0  0  0  0  0  0  0  0  0
   11.0970  -11.6780   23.6710 C   0  0  0  0  0  0  0  0  0  0  0  0
   12.0790  -11.6850   22.6660 C   0  0  0  0  0  0  0  0  0  0  0  0
   12.0990  -12.6910   21.6450 C   0  0  0  0  0  0  0  0  0  0  0  0
   13.0860  -12.7030   20.6420 C   0  0  0  0  0  0  0  0  0  0  0  0
   14.0860  -11.7100   20.6240 C   0  0  0  0  0  0  0  0  0  0  0  0
   14.0990  -10.7020   21.6110 C   0  0  0  0  0  0  0  0  0  0  0  0
   13.1130  -10.6920   22.6100 C   0  0  0  0  0  0  0  0  0  0  0  0
   15.1220  -11.6910   19.6280 N   0  0  0  0  0  0  0  0  0  0  0  0
   16.5750  -11.4160   19.8050 C   0  0  0  0  0  0  0  0  0  0  0  0
   16.7180  -13.2600   21.5130 N   0  0  0  0  0  0  0  0  0  0  0  0
   17.4080  -12.3860   20.6790 C   0  0  0  0  0  0  0  0  0  0  0  0
   18.8210  -12.4030   20.6440 N   0  0  0  0  0  0  0  0  0  0  0  0
   19.0210  -13.4180   21.5730 C   0  0  0  0  0  0  0  0  0  0  0  0
   17.7690  -13.9140   22.0830 C   0  0  0  0  0  0  0  0  0  0  0  0
   20.2520  -13.9740   22.0450 C   0  0  0  0  0  0  0  0  0  0  0  0
   20.2060  -15.0050   23.0010 C   0  0  0  0  0  0  0  0  0  0  0  0
   18.9710  -15.5090   23.5300 C   0  0  0  0  0  0  0  0  0  0  0  0
   17.7400  -14.9590   23.0520 C   0  0  0  0  0  0  0  0  0  0  0  0
   19.8120  -11.6010   19.8600 C   0  0  0  0  0  0  0  0  0  0  0  0
   18.0980  -17.6840   24.9640 C   0  0  0  0  0  0  0  0  0  0  0  0
   17.7220  -16.3400   25.6270 C   0  0  0  0  0  0  0  0  0  0  0  0
   18.9830  -16.4650   24.8040 C   0  0  0  0  0  0  0  0  0  0  0  0
   20.4640  -16.6310   25.2470 C   0  0  0  0  0  0  0  0  0  0  0  0
   21.1550  -17.6570   24.8780 N   0  0  0  0  0  0  0  0  0  0  0  0
   22.4130  -15.7230   26.6390 N   0  0  0  0  0  0  0  0  0  0  0  0
   21.1190  -15.5360   26.1000 C   0  0  0  0  0  0  0  0  0  0  0  0
   20.4370  -14.3180   26.3370 C   0  0  0  0  0  0  0  0  0  0  0  0
   21.0510  -13.3150   27.1050 C   0  0  0  0  0  0  0  0  0  0  0  0
   22.3350  -13.4960   27.6460 C   0  0  0  0  0  0  0  0  0  0  0  0
   23.0250  -14.7120   27.4120 C   0  0  0  0  0  0  0  0  0  0  0  0
   20.5310  -18.6970   24.0270 O   0  0  0  0  0  0  0  0  0  0  0  0
   21.1310  -19.9690   24.2640 C   0  0  0  0  0  0  0  0  0  0  0  0
   20.4590  -21.0230   23.3480 C   0  0  0  0  0  0  0  0  0  0  0  0
   20.6110  -22.2250   23.6010 O   0  0  0  0  0  0  0  0  0  0  0  0
   19.7090  -20.6100   22.2700 O   0  0  0  0  0  0  0  0  0  0  0  0
   18.1330  -21.2130   20.5100 C   0  0  0  0  0  0  0  0  0  0  0  0
   19.1640  -21.7220   21.5370 C   0  0  0  0  0  0  0  0  0  0  0  0
  3  1  2  0
  3  2  1  0
  4  3  1  0
  5  4  2  0
  9  4  1  0
  6  5  1  0
  7  6  2  0
  8  7  1  0
 10  7  1  0
  9  8  2  0
 11 10  1  0
 13 11  1  0
 13 12  2  0
 16 12  1  0
 14 13  1  0
 15 14  1  0
 21 14  1  0
 16 15  2  0
 17 15  1  0
 20 16  1  0
 18 17  2  0
 19 18  1  0
 20 19  2  0
 24 19  1  0
 23 22  1  0
 24 22  1  0
 24 23  1  0
 25 24  1  0
 26 25  2  0
 28 25  1  0
 33 26  1  0
 28 27  2  0
 32 27  1  0
 29 28  1  0
 30 29  2  0
 31 30  1  0
 32 31  2  0
 34 33  1  0
 35 34  1  0
 36 35  2  0
 37 35  1  0
 39 37  1  0
 39 38  1  0
A    1
N1
A    2
N2
A    3
C1
A    4
C2
A    5
C3
A    6
C4
A    7
C5
A    8
C6
A    9
C7
A   10
N
A   11
C
A   12
N3
A   13
C8
A   14
N9
A   15
C3A
A   16
C7A
A   17
C10
A   18
C11
A   19
C12
A   20
C13
A   21
C14
A   22
C9
A   23
C15
A   24
C16
A   25
C17
A   26
N4
A   27
N5
A   28
C18
A   29
C19
A   30
C20
A   31
C21
A   32
C22
A   33
OH
A   34
C23
A   35
C24
A   36
O2
A   37
O3
A   38
C25
A   39
C26
M  END
>  <Id>  (106) 
1G30_T87_B_1

>  <ChainId>  (106) 
B

>  <AsymId>  (106) 
D

>  <SeqNum>  (106) 
1

>  <Name>  (106) 
[(1-{2[(4-CARBAMIMIDOYL-PHENYLAMINO)-METHYL]-1-METHYL-1H-BENZOIMIDAZOL-5-YL}-CYCLOPROPYL)-PYRIDIN-2-YL-METHYLENEAMINOOXY]-ACETIC ACID ETHYL ESTER

>  <SystematicName>  (106) 
ethyl 2-[[[1-[2-[[(4-carbamimidoylphenyl)amino]methyl]-1-methyl-benzimidazol-5-yl]cyclopropyl]-pyridin-2-yl-methylidene]amino]oxyethanoate

>  <Synonyms>  (106) 


>  <Type>  (106) 
NON-POLYMER

>  <Formula>  (106) 
C29 H31 N7 O3

>  <ObservedFormula>  (106) 
C29 N7 O3

>  <MolecularWeight>  (106) 
525.602

>  <ModifiedDate>  (106) 
2011-06-04

>  <Parent>  (106) 


>  <OneLetterCode>  (106) 


>  <SubcomponentList>  (106) 


>  <AmbiguousFlag>  (106) 
N

>  <InsertionCode>  (106) 


>  <InstanceId>  (106) 
1G30_T87_B_1

>  <ChemCompId>  (106) 
T87

>  <PdbId>  (106) 
1G30

>  <ResidueNumber>  (106) 
1

>  <InChI>  (106) 
InChI=1S/C29H31N7O3/c1-3-38-26(37)18-39-35-27(22-6-4-5-15-32-22)29(13-14-29)20-9-12-24-23(16-20)34-25(36(24)2)17-33-21-10-7-19(8-11-21)28(30)31/h4-12,15-16,33H,3,13-14,17-18H2,1-2H3,(H3,30,31)/b35-27-

>  <InChIKey>  (106) 
RNOYCNIZOAIUSV-LSWMGQQCSA-N

>  <SMILES>  (106) 
[H]/N=C(/c1ccc(cc1)NCc2nc3cc(ccc3n2C)C4(CC4)/C(=N\OCC(=O)OCC)/c5ccccn5)\N

>  <MissingHeavyAtoms>  (106) 
0

>  <Model>  (106) 
1

>  <AltIds>  (106) 


>  <pKI>  (106) 
6.85

>  <ChemblID>  (106) 
-

>  <standardized_canonical_smiles>  (106) 
CCOC(=O)CO/N=C(/c1ccccn1)C1(c2ccc3c(c2)nc(CNc2ccc(C(=N)N)cc2)n3C)CC1

$$$$
3F68_91U_H_901
     RDKit          3D

 30 32  0  0  0  0  0  0  0  0999 V2000
   17.2460  -17.0620   23.7640 C   0  0  0  0  0  0  0  0  0  0  0  0
   18.0830  -17.7930   23.2470 O   0  0  0  0  0  0  0  0  0  0  0  0
   16.6730  -17.5100   25.0830 C   0  0  0  0  0  0  0  0  0  0  0  0
   19.5960  -14.3690   25.0120 C   0  0  0  0  0  0  0  0  0  0  0  0
   20.4340  -14.4730   23.7030 C   0  0  0  0  0  0  0  0  0  0  0  0
   21.9310  -14.6710   24.0480 C   0  0  0  0  0  0  0  0  0  0  0  0
   22.4320  -13.5320   24.9550 C   0  0  0  0  0  0  0  0  0  0  0  0
   21.5350  -13.2610   26.1780 C   0  0  0  0  0  0  0  0  0  0  0  0
   20.0410  -13.0960   25.7820 C   0  0  0  0  0  0  0  0  0  0  0  0
   16.8970  -15.8960   23.1390 N   0  0  0  0  0  0  0  0  0  0  0  0
   17.8040  -14.7420   23.1940 C   0  0  0  0  0  0  0  0  0  0  0  0
   18.0660  -14.4250   24.7040 C   0  0  0  0  0  0  0  0  0  0  0  0
   17.2690  -13.5320   22.4620 C   0  0  0  0  0  0  0  0  0  0  0  0
   16.2220  -13.0730   22.9020 O   0  0  0  0  0  0  0  0  0  0  0  0
   17.9290  -12.9930   21.3930 N   0  0  0  0  0  0  0  0  0  0  0  0
   17.4840  -11.7760   20.7390 C   0  0  0  0  0  0  0  0  0  0  0  0
   15.9990  -11.7370   20.4600 C   0  0  0  0  0  0  0  0  0  0  0  0
   15.4200  -12.7430   20.0720 O   0  0  0  0  0  0  0  0  0  0  0  0
   18.2600  -11.9090   19.3920 C   0  0  0  0  0  0  0  0  0  0  0  0
   19.5780  -12.6040   19.7990 C   0  0  0  0  0  0  0  0  0  0  0  0
   19.0900  -13.6780   20.8010 C   0  0  0  0  0  0  0  0  0  0  0  0
   15.3080  -10.5830   20.6460 N   0  0  0  0  0  0  0  0  0  0  0  0
   13.8730  -10.5960   20.3560 C   0  0  0  0  0  0  0  0  0  0  0  0
   13.0160  -10.4950   21.6230 C   0  0  0  0  0  0  0  0  0  0  0  0
   12.1440  -11.5250   21.9710 C   0  0  0  0  0  0  0  0  0  0  0  0
   11.3700  -11.4470   23.1350 C   0  0  0  0  0  0  0  0  0  0  0  0
   11.4280  -10.2920   23.9420 C   0  0  0  0  0  0  0  0  0  0  0  0
   12.3220   -9.2710   23.6070 C   0  0  0  0  0  0  0  0  0  0  0  0
   13.0730   -9.3430   22.4230 C   0  0  0  0  0  0  0  0  0  0  0  0
   12.4570   -7.8540   24.6340 Cl  0  0  0  0  0  0  0  0  0  0  0  0
  2  1  2  0
  3  1  1  0
 10  1  1  0
  5  4  1  0
  9  4  1  0
 12  4  1  0
  6  5  1  0
  7  6  1  0
  8  7  1  0
  9  8  1  0
 11 10  1  0
 12 11  1  0
 13 11  1  0
 14 13  2  0
 15 13  1  0
 16 15  1  0
 21 15  1  0
 17 16  1  0
 19 16  1  0
 18 17  2  0
 22 17  1  0
 20 19  1  0
 21 20  1  0
 23 22  1  0
 24 23  1  0
 25 24  2  0
 29 24  1  0
 26 25  1  0
 27 26  2  0
 28 27  1  0
 29 28  2  0
 30 28  1  0
A    1
C47
A    2
O48
A    3
C49
A    4
C1
A    5
C6
A    6
C5
A    7
C4
A    8
C3
A    9
C2
A   10
N
A   11
C15
A   12
C31
A   13
C14
A   14
O32
A   15
N1
A   16
C32
A   17
C7
A   18
O22
A   19
C35
A   20
C34
A   21
C33
A   22
N23
A   23
C24
A   24
C25
A   25
C26
A   26
C27
A   27
C28
A   28
C29
A   29
C30
A   30
CL21
M  END
>  <Id>  (107) 
3F68_91U_H_901

>  <ChainId>  (107) 
H

>  <AsymId>  (107) 
D

>  <SeqNum>  (107) 
901

>  <Name>  (107) 
N-acetyl-3-cyclohexyl-D-alanyl-N-(3-chlorobenzyl)-L-prolinamide

>  <SystematicName>  (107) 
(2S)-1-[(2R)-2-acetamido-3-cyclohexyl-propanoyl]-N-[(3-chlorophenyl)methyl]pyrrolidine-2-carboxamide

>  <Synonyms>  (107) 


>  <Type>  (107) 
peptide-like

>  <Formula>  (107) 
C23 H32 Cl N3 O3

>  <ObservedFormula>  (107) 
C23 Cl N3 O3

>  <MolecularWeight>  (107) 
433.971

>  <ModifiedDate>  (107) 
2011-06-04

>  <Parent>  (107) 


>  <OneLetterCode>  (107) 


>  <SubcomponentList>  (107) 
ACE ZAL PRO C2A

>  <AmbiguousFlag>  (107) 
N

>  <InsertionCode>  (107) 


>  <InstanceId>  (107) 
3F68_91U_H_901

>  <ChemCompId>  (107) 
91U

>  <PdbId>  (107) 
3F68

>  <ResidueNumber>  (107) 
901

>  <InChI>  (107) 
InChI=1S/C23H32ClN3O3/c1-16(28)26-20(14-17-7-3-2-4-8-17)23(30)27-12-6-11-21(27)22(29)25-15-18-9-5-10-19(24)13-18/h5,9-10,13,17,20-21H,2-4,6-8,11-12,14-15H2,1H3,(H,25,29)(H,26,28)/t20-,21+/m1/s1

>  <InChIKey>  (107) 
NEBILTDHZWSWJN-RTWAWAEBSA-N

>  <SMILES>  (107) 
CC(=O)N[C@H](CC1CCCCC1)C(=O)N2CCC[C@H]2C(=O)NCc3cccc(c3)Cl

>  <MissingHeavyAtoms>  (107) 
0

>  <Model>  (107) 
1

>  <AltIds>  (107) 


>  <pKI>  (107) 
5.06

>  <ChemblID>  (107) 
-

>  <standardized_canonical_smiles>  (107) 
CC(=O)N[C@H](CC1CCCCC1)C(=O)N1CCC[C@H]1C(=O)NCc1cccc(Cl)c1

$$$$
1LHF_DI4_H_400
     RDKit          3D

 32 33  0  0  0  0  0  0  0  0999 V2000
   10.2990  -11.6700   25.7300 N   0  0  0  0  0  0  0  0  0  0  0  0
   14.4440  -11.0370   19.9240 C   0  0  0  0  0  0  0  0  0  0  0  0
   15.6330  -17.9490   22.9330 C   0  0  0  0  0  0  0  0  0  0  0  0
   18.9070  -12.7450   20.4950 C   0  0  0  0  0  0  0  0  0  0  0  0
   17.4120  -15.9780   25.1380 C   0  0  0  0  0  0  0  0  0  0  0  0
   21.2150  -15.3010   24.9640 C   0  0  0  0  0  0  0  0  0  0  0  0
   18.8250  -15.3760   25.4060 C   0  0  0  0  0  0  0  0  0  0  0  0
   12.3410  -12.0080   22.6520 C   0  0  0  0  0  0  0  0  0  0  0  0
   15.6990  -16.6910   23.4190 N   0  0  0  0  0  0  0  0  0  0  0  0
   17.0000  -16.0110   23.6160 C   0  0  0  0  0  0  0  0  0  0  0  0
   12.2350  -11.5050   21.2300 C   0  0  0  0  0  0  0  0  0  0  0  0
   17.6880  -14.1870   21.9360 N   0  0  0  0  0  0  0  0  0  0  0  0
   16.9010  -14.5890   22.9670 C   0  0  0  0  0  0  0  0  0  0  0  0
   21.3540  -14.2650   25.8730 C   0  0  0  0  0  0  0  0  0  0  0  0
   14.6550  -10.0450   18.7550 B   0  0  0  0  0  0  0  0  0  0  0  0
   20.2370  -13.7750   26.5520 C   0  0  0  0  0  0  0  0  0  0  0  0
   13.4340  -10.0080   17.9590 O   0  0  0  0  0  0  0  0  0  0  0  0
   18.9770  -14.3250   26.3080 C   0  0  0  0  0  0  0  0  0  0  0  0
   17.6240  -12.8060   21.3610 C   0  0  0  0  0  0  0  0  0  0  0  0
   15.6600  -11.3750   20.7340 N   0  0  0  0  0  0  0  0  0  0  0  0
   11.1360  -11.6510   23.4080 C   0  0  0  0  0  0  0  0  0  0  0  0
   13.3030  -10.4970   20.8200 C   0  0  0  0  0  0  0  0  0  0  0  0
   16.3620  -12.5120   20.4970 C   0  0  0  0  0  0  0  0  0  0  0  0
   16.6510  -18.5460   22.5280 O   0  0  0  0  0  0  0  0  0  0  0  0
   18.6330  -15.0630   21.2110 C   0  0  0  0  0  0  0  0  0  0  0  0
   15.7240  -10.3260   17.8300 O   0  0  0  0  0  0  0  0  0  0  0  0
   14.2660  -18.6080   22.8930 C   0  0  0  0  0  0  0  0  0  0  0  0
   10.6410  -12.3570   24.5400 C   0  0  0  0  0  0  0  0  0  0  0  0
   16.0840  -13.8150   23.4640 O   0  0  0  0  0  0  0  0  0  0  0  0
   19.9550  -15.8530   24.7180 C   0  0  0  0  0  0  0  0  0  0  0  0
   16.0480  -13.3280   19.6110 O   0  0  0  0  0  0  0  0  0  0  0  0
   19.3970  -14.1690   20.2580 C   0  0  0  0  0  0  0  0  0  0  0  0
 11  8  1  0
  5  7  1  0
  2 22  1  0
 15 17  1  0
  6 30  2  0
  7 30  1  0
 15  2  1  0
 23 31  2  0
 19  4  1  0
 14 16  2  0
 10  9  1  0
  3 27  1  0
 13 10  1  0
  5 10  1  0
 28  1  1  0
  4 32  1  0
 19 12  1  0
  3  9  1  0
 22 11  1  0
 23 20  1  0
 15 26  1  0
 21 28  1  0
 19 23  1  0
  6 14  1  0
 32 25  1  0
  3 24  2  0
 16 18  1  0
  8 21  1  0
 25 12  1  0
 13 29  2  0
  2 20  1  0
 13 12  1  0
 18  7  2  0
A    1
N1
A    2
C
A    3
C15
A    4
C9
A    5
C13
A    6
C17
A    7
C21
A    8
C4
A    9
N3
A   10
C14
A   11
C3
A   12
N2
A   13
C12
A   14
C18
A   15
B1
A   16
C19
A   17
O
A   18
C20
A   19
C7
A   20
N
A   21
C5
A   22
C2
A   23
C8
A   24
O4
A   25
C11
A   26
O1
A   27
C16
A   28
C6
A   29
O3
A   30
C22
A   31
O2
A   32
C10
M  END
>  <InstanceId>  (108) 
1LHF_DI4_H_400

>  <ChemCompId>  (108) 
DI4

>  <PdbId>  (108) 
1LHF

>  <ChainId>  (108) 
H

>  <ResidueNumber>  (108) 
400

>  <InsertionCode>  (108) 


>  <Model>  (108) 
1

>  <AltIds>  (108) 


>  <MissingHeavyAtoms>  (108) 
0

>  <ObservedFormula>  (108) 
C22 N4 O5 B

>  <AsymId>  (108) 
D

>  <SeqNum>  (108) 
400

>  <Name>  (108) 
AC-(D)PHE-PRO-BOROHOMOLYS-OH

>  <SystematicName>  (108) 
[(1R)-1-[[(2S)-1-[(2R)-2-acetamido-3-phenyl-propanoyl]pyrrolidin-2-yl]carbonylamino]-6-amino-hexyl]boronic acid

>  <Synonyms>  (108) 


>  <Type>  (108) 
NON-POLYMER

>  <Formula>  (108) 
C22 H35 B N4 O5

>  <MolecularWeight>  (108) 
446.348

>  <ModifiedDate>  (108) 
2011-06-04

>  <Parent>  (108) 


>  <OneLetterCode>  (108) 


>  <SubcomponentList>  (108) 


>  <AmbiguousFlag>  (108) 
N

>  <InChI>  (108) 
null

>  <InChIKey>  (108) 
null

>  <SMILES>  (108) 
B([C@H](CCCCCN)NC(=O)[C@@H]1CCCN1C(=O)[C@@H](Cc2ccccc2)NC(=O)C)(O)O

>  <pKI>  (108) 
8.09

>  <ChemblID>  (108) 
-

>  <standardized_canonical_smiles>  (108) 
CC(=O)N[C@H](Cc1ccccc1)C(=O)N1CCC[C@H]1C(=O)N[C@@H](CCCCCN)B(O)O

$$$$
1LHE_DI3_H_400
     RDKit          3D

 33 34  0  0  0  0  0  0  0  0999 V2000
   18.5440  -14.3470   21.8890 N   0  0  0  0  0  0  0  0  0  0  0  0
   22.2570  -14.2100   25.6020 C   0  0  0  0  0  0  0  0  0  0  0  0
   13.6510  -11.6490   20.1690 C   0  0  0  0  0  0  0  0  0  0  0  0
   19.8640  -14.2960   25.9680 C   0  0  0  0  0  0  0  0  0  0  0  0
   15.2270  -10.7390   18.4200 B   0  0  0  0  0  0  0  0  0  0  0  0
   17.0600  -12.9310   20.3290 C   0  0  0  0  0  0  0  0  0  0  0  0
   17.7970  -16.1760   23.5460 C   0  0  0  0  0  0  0  0  0  0  0  0
   12.1060  -12.0620   23.1440 C   0  0  0  0  0  0  0  0  0  0  0  0
   13.4030  -10.7600   21.3730 C   0  0  0  0  0  0  0  0  0  0  0  0
   16.2180  -11.8740   20.4520 N   0  0  0  0  0  0  0  0  0  0  0  0
   19.6450  -15.1480   21.3590 C   0  0  0  0  0  0  0  0  0  0  0  0
   11.0570  -11.8970   24.2260 C   0  0  0  0  0  0  0  0  0  0  0  0
   17.6880  -14.7610   22.8690 C   0  0  0  0  0  0  0  0  0  0  0  0
   16.8750  -13.8740   19.5370 O   0  0  0  0  0  0  0  0  0  0  0  0
   21.1000  -13.6840   26.1890 C   0  0  0  0  0  0  0  0  0  0  0  0
   18.3690  -13.0150   21.2070 C   0  0  0  0  0  0  0  0  0  0  0  0
   16.3990  -16.6990   23.5790 N   0  0  0  0  0  0  0  0  0  0  0  0
   15.0200  -11.8020   19.5500 C   0  0  0  0  0  0  0  0  0  0  0  0
   18.4080  -16.1500   24.9750 C   0  0  0  0  0  0  0  0  0  0  0  0
   19.5740  -12.9860   20.2100 C   0  0  0  0  0  0  0  0  0  0  0  0
   11.9890  -11.0260   21.9850 C   0  0  0  0  0  0  0  0  0  0  0  0
   16.7980  -18.5230   22.2770 O   0  0  0  0  0  0  0  0  0  0  0  0
   14.5280  -18.1840   23.0170 C   0  0  0  0  0  0  0  0  0  0  0  0
   10.3560  -12.8830   24.5780 N   0  0  0  0  0  0  0  0  0  0  0  0
   10.8390  -10.6520   24.8590 N   0  0  0  0  0  0  0  0  0  0  0  0
   19.7670  -15.4480   25.1890 C   0  0  0  0  0  0  0  0  0  0  0  0
   13.9810  -10.6210   17.6720 O   0  0  0  0  0  0  0  0  0  0  0  0
   20.3510  -14.2750   20.3420 C   0  0  0  0  0  0  0  0  0  0  0  0
   16.7520  -14.0420   23.2410 O   0  0  0  0  0  0  0  0  0  0  0  0
   22.1770  -15.3420   24.8130 C   0  0  0  0  0  0  0  0  0  0  0  0
   16.2960  -11.0270   17.5220 O   0  0  0  0  0  0  0  0  0  0  0  0
   20.9440  -15.9660   24.6050 C   0  0  0  0  0  0  0  0  0  0  0  0
   16.0080  -17.8050   22.9200 C   0  0  0  0  0  0  0  0  0  0  0  0
  3  9  1  0
 16  6  1  0
 16 20  1  0
  9 21  1  0
  6 10  1  0
 33 17  1  0
  6 14  2  0
 30 32  2  0
 13  7  1  0
 18  3  1  0
  5 27  1  0
 12 25  1  0
  4 26  2  0
 26 32  1  0
  5 18  1  0
  2 15  2  0
 28 11  1  0
 18 10  1  0
 33 22  2  0
 19  7  1  0
 15  4  1  0
 13 29  2  0
 30  2  1  0
 19 26  1  0
  5 31  1  0
 21  8  1  0
 33 23  1  0
 12 24  2  0
 13  1  1  0
 11  1  1  0
  7 17  1  0
 16  1  1  0
 20 28  1  0
  8 12  1  0
A    1
N3
A    2
C18
A    3
C2
A    4
C20
A    5
B1
A    6
C8
A    7
C14
A    8
C5
A    9
C3
A   10
N
A   11
C11
A   12
C6
A   13
C12
A   14
O2
A   15
C19
A   16
C7
A   17
N4
A   18
C
A   19
C13
A   20
C9
A   21
C4
A   22
O4
A   23
C16
A   24
N1
A   25
N2
A   26
C21
A   27
O
A   28
C10
A   29
O3
A   30
C17
A   31
O1
A   32
C22
A   33
C15
M  END
>  <InstanceId>  (109) 
1LHE_DI3_H_400

>  <ChemCompId>  (109) 
DI3

>  <PdbId>  (109) 
1LHE

>  <ChainId>  (109) 
H

>  <ResidueNumber>  (109) 
400

>  <InsertionCode>  (109) 


>  <Model>  (109) 
1

>  <AltIds>  (109) 


>  <MissingHeavyAtoms>  (109) 
0

>  <ObservedFormula>  (109) 
C22 N5 O5 B

>  <AsymId>  (109) 
D

>  <SeqNum>  (109) 
400

>  <Name>  (109) 
AC-(D)PHE-PRO-BORO-N-BUTYL-AMIDINO-GLYCINE-OH

>  <SystematicName>  (109) 
[(1R)-1-[[(2S)-1-[(2R)-2-acetamido-3-phenyl-propanoyl]pyrrolidin-2-yl]carbonylamino]-6-amino-6-imino-hexyl]boronic acid

>  <Synonyms>  (109) 


>  <Type>  (109) 
NON-POLYMER

>  <Formula>  (109) 
C22 H34 B N5 O5

>  <MolecularWeight>  (109) 
459.347

>  <ModifiedDate>  (109) 
2011-06-04

>  <Parent>  (109) 


>  <OneLetterCode>  (109) 


>  <SubcomponentList>  (109) 


>  <AmbiguousFlag>  (109) 
N

>  <InChI>  (109) 
null

>  <InChIKey>  (109) 
null

>  <SMILES>  (109) 
B([C@H](CCCCC(=N)N)NC(=O)[C@@H]1CCCN1C(=O)[C@@H](Cc2ccccc2)NC(=O)C)(O)O

>  <pKI>  (109) 
9.54

>  <ChemblID>  (109) 
-

>  <standardized_canonical_smiles>  (109) 
CC(=O)N[C@H](Cc1ccccc1)C(=O)N1CCC[C@H]1C(=O)N[C@@H](CCCCC(=N)N)B(O)O

$$$$
1LHG_DI5_H_400
     RDKit          3D

 30 31  0  0  0  0  0  0  0  0999 V2000
   17.9160  -13.0830   21.3250 C   0  0  0  0  0  0  0  0  0  0  0  0
   16.3270  -16.7940   24.0120 N   0  0  0  0  0  0  0  0  0  0  0  0
   14.4490  -18.3140   23.4510 C   0  0  0  0  0  0  0  0  0  0  0  0
   11.2060  -12.5960   23.0310 N   0  0  0  0  0  0  0  0  0  0  0  0
   20.1890  -14.3230   26.0870 C   0  0  0  0  0  0  0  0  0  0  0  0
   12.2630  -12.6450   21.9840 C   0  0  0  0  0  0  0  0  0  0  0  0
   16.4230  -14.1440   23.4190 O   0  0  0  0  0  0  0  0  0  0  0  0
   13.6950  -10.2820   17.9260 O   0  0  0  0  0  0  0  0  0  0  0  0
   19.7670  -14.3580   20.2560 C   0  0  0  0  0  0  0  0  0  0  0  0
   13.6290  -10.7770   20.8570 C   0  0  0  0  0  0  0  0  0  0  0  0
   13.2030  -11.4530   22.1520 C   0  0  0  0  0  0  0  0  0  0  0  0
   17.3930  -14.8080   23.0500 C   0  0  0  0  0  0  0  0  0  0  0  0
   22.1240  -15.6250   24.5470 C   0  0  0  0  0  0  0  0  0  0  0  0
   15.8550  -17.7690   23.2010 C   0  0  0  0  0  0  0  0  0  0  0  0
   16.5180  -18.2580   22.2730 O   0  0  0  0  0  0  0  0  0  0  0  0
   19.8020  -15.3890   25.2570 C   0  0  0  0  0  0  0  0  0  0  0  0
   19.3660  -15.0820   21.5340 C   0  0  0  0  0  0  0  0  0  0  0  0
   14.6200  -11.4890   19.9120 C   0  0  0  0  0  0  0  0  0  0  0  0
   14.8880  -10.4790   18.7170 B   0  0  0  0  0  0  0  0  0  0  0  0
   17.6650  -16.1640   23.8280 C   0  0  0  0  0  0  0  0  0  0  0  0
   16.0630  -13.9780   20.0480 O   0  0  0  0  0  0  0  0  0  0  0  0
   18.1880  -14.3690   22.0470 N   0  0  0  0  0  0  0  0  0  0  0  0
   20.7960  -16.0430   24.4940 C   0  0  0  0  0  0  0  0  0  0  0  0
   15.9160  -10.9090   17.8120 O   0  0  0  0  0  0  0  0  0  0  0  0
   21.5220  -13.9200   26.1550 C   0  0  0  0  0  0  0  0  0  0  0  0
   22.4880  -14.5720   25.3720 C   0  0  0  0  0  0  0  0  0  0  0  0
   18.3180  -15.8480   25.2350 C   0  0  0  0  0  0  0  0  0  0  0  0
   16.5330  -12.9830   20.6010 C   0  0  0  0  0  0  0  0  0  0  0  0
   15.9100  -11.7920   20.6190 N   0  0  0  0  0  0  0  0  0  0  0  0
   19.0650  -12.9950   20.2910 C   0  0  0  0  0  0  0  0  0  0  0  0
 20  2  1  0
 18 29  1  0
  1 22  1  0
  9 17  1  0
 12 22  1  0
 27 16  1  0
 14  2  1  0
 14  3  1  0
 10 11  1  0
 27 20  1  0
 19 24  1  0
 18 10  1  0
  1 30  1  0
 14 15  2  0
  5 16  2  0
 11  6  1  0
 12  7  2  0
 26 25  2  0
 25  5  1  0
 30  9  1  0
 13 26  1  0
 13 23  2  0
 28 29  1  0
 17 22  1  0
  6  4  1  0
 16 23  1  0
 28 21  2  0
 19  8  1  0
 12 20  1  0
 19 18  1  0
 28  1  1  0
A    1
C5
A    2
N3
A    3
C14
A    4
N1
A    5
C18
A    6
C4
A    7
O3
A    8
O
A    9
C8
A   10
C2
A   11
C3
A   12
C10
A   13
C15
A   14
C13
A   15
O4
A   16
C19
A   17
C9
A   18
C
A   19
B1
A   20
C12
A   21
O2
A   22
N2
A   23
C20
A   24
O1
A   25
C17
A   26
C16
A   27
C11
A   28
C6
A   29
N
A   30
C7
M  END
>  <InstanceId>  (110) 
1LHG_DI5_H_400

>  <ChemCompId>  (110) 
DI5

>  <PdbId>  (110) 
1LHG

>  <ChainId>  (110) 
H

>  <ResidueNumber>  (110) 
400

>  <InsertionCode>  (110) 


>  <Model>  (110) 
1

>  <AltIds>  (110) 


>  <MissingHeavyAtoms>  (110) 
0

>  <ObservedFormula>  (110) 
C20 N4 O5 B

>  <AsymId>  (110) 
D

>  <SeqNum>  (110) 
400

>  <Name>  (110) 
AC-(D)PHE-PRO-BOROHOMOORNITHINE-OH

>  <SystematicName>  (110) 
[(1R)-1-[[(2S)-1-[(2R)-2-acetamido-3-phenyl-propanoyl]pyrrolidin-2-yl]carbonylamino]-4-amino-butyl]boronic acid

>  <Synonyms>  (110) 


>  <Type>  (110) 
NON-POLYMER

>  <Formula>  (110) 
C20 H31 B N4 O5

>  <MolecularWeight>  (110) 
418.295

>  <ModifiedDate>  (110) 
2011-06-04

>  <Parent>  (110) 


>  <OneLetterCode>  (110) 


>  <SubcomponentList>  (110) 


>  <AmbiguousFlag>  (110) 
N

>  <InChI>  (110) 
null

>  <InChIKey>  (110) 
null

>  <SMILES>  (110) 
B([C@H](CCCN)NC(=O)[C@@H]1CCCN1C(=O)[C@@H](Cc2ccccc2)NC(=O)C)(O)O

>  <pKI>  (110) 
7.1

>  <ChemblID>  (110) 
-

>  <standardized_canonical_smiles>  (110) 
CC(=O)N[C@H](Cc1ccccc1)C(=O)N1CCC[C@H]1C(=O)N[C@@H](CCCN)B(O)O

$$$$
1AWH_GR3_D_1
     RDKit          3D

 39 42  0  0  0  0  0  0  0  0999 V2000
   13.4620   15.2010   57.9020 C   0  0  0  0  0  0  0  0  0  0  0  0
   13.4510   16.6200   58.4750 C   0  0  0  0  0  0  0  0  0  0  0  0
   14.5220   17.4680   57.7920 C   0  0  0  0  0  0  0  0  0  0  0  0
   14.2290   17.5900   56.3090 C   0  0  0  0  0  0  0  0  0  0  0  0
   14.1060   16.1790   55.6490 C   0  0  0  0  0  0  0  0  0  0  0  0
   13.7960   16.2010   54.1200 C   0  0  0  0  0  0  0  0  0  0  0  0
   13.4480   14.8240   53.5690 C   0  0  0  0  0  0  0  0  0  0  0  0
   13.3680   13.7170   54.3310 C   0  0  0  0  0  0  0  0  0  0  0  0
   13.5750   13.7490   55.8340 C   0  0  0  0  0  0  0  0  0  0  0  0
   13.1840   15.1590   56.3960 C   0  0  0  0  0  0  0  0  0  0  0  0
   12.8570   12.6320   56.5380 C   0  0  0  0  0  0  0  0  0  0  0  0
   13.0650   11.2580   55.9270 C   0  0  0  0  0  0  0  0  0  0  0  0
   13.6040   11.2520   54.5020 C   0  0  0  0  0  0  0  0  0  0  0  0
   12.9860   12.4150   53.7350 C   0  0  0  0  0  0  0  0  0  0  0  0
   13.3400   12.0780   52.2850 C   0  0  0  0  0  0  0  0  0  0  0  0
   13.3560   10.5170   52.1870 C   0  0  0  0  0  0  0  0  0  0  0  0
   13.1510   10.0300   53.6440 C   0  0  0  0  0  0  0  0  0  0  0  0
   15.1410   11.2730   54.5250 C   0  0  0  0  0  0  0  0  0  0  0  0
   11.6820   15.4750   56.1700 C   0  0  0  0  0  0  0  0  0  0  0  0
   13.3980    8.1220   55.3090 C   0  0  0  0  0  0  0  0  0  0  0  0
   14.5620    7.8370   56.1970 C   0  0  0  0  0  0  0  0  0  0  0  0
   14.3200    7.1540   57.4930 C   0  0  0  0  0  0  0  0  0  0  0  0
   15.2110    7.0180   58.5000 C   0  0  0  0  0  0  0  0  0  0  0  0
   14.8330    6.2020   59.7040 C   0  0  0  0  0  0  0  0  0  0  0  0
   16.5760    7.6740   58.5800 C   0  0  0  0  0  0  0  0  0  0  0  0
   11.4600   12.5030   53.7530 C   0  0  0  0  0  0  0  0  0  0  0  0
   15.3810   18.3820   55.6660 C   0  0  0  0  0  0  0  0  0  0  0  0
   12.9770   18.4870   56.0900 C   0  0  0  0  0  0  0  0  0  0  0  0
   16.3710   18.6630   56.2900 O   0  0  0  0  0  0  0  0  0  0  0  0
   12.4090    9.9840   51.2330 O   0  0  0  0  0  0  0  0  0  0  0  0
   14.3870    6.8990   52.5330 O   0  0  0  0  0  0  0  0  0  0  0  0
   15.2220   18.8700   54.5600 O   0  0  0  0  0  0  0  0  0  0  0  0
   15.6880    8.1390   55.8640 O   0  0  0  0  0  0  0  0  0  0  0  0
   15.8130   16.8310   58.0270 O   0  0  0  0  0  0  0  0  0  0  0  0
   16.7740   17.3130   58.8890 C   0  0  0  0  0  0  0  0  0  0  0  0
   16.4870   18.7120   59.4380 C   0  0  0  0  0  0  0  0  0  0  0  0
   17.7800   16.7190   59.2940 O   0  0  0  0  0  0  0  0  0  0  0  0
   13.8230    8.6950   53.9550 C   0  0  0  0  0  0  0  0  0  0  0  0
   13.4980    7.5390   53.0590 C   0  0  0  0  0  0  0  0  0  0  0  0
  2  1  1  0
 10  1  1  0
  3  2  1  0
  4  3  1  0
 34  3  1  0
  5  4  1  0
 27  4  1  0
 28  4  1  0
  6  5  1  0
 10  5  1  0
  7  6  1  0
  8  7  2  0
  9  8  1  0
 14  8  1  0
 10  9  1  0
 11  9  1  0
 19 10  1  0
 12 11  1  0
 13 12  1  0
 14 13  1  0
 17 13  1  0
 18 13  1  0
 15 14  1  0
 26 14  1  0
 16 15  1  0
 17 16  1  0
 30 16  1  0
 38 17  1  0
 21 20  1  0
 38 20  1  0
 22 21  1  0
 33 21  2  0
 23 22  2  3
 24 23  1  0
 25 23  1  0
 29 27  2  0
 32 27  1  0
 39 31  2  0
 35 34  1  0
 36 35  1  0
 37 35  2  0
 39 38  1  0
A    1
C1
A    2
C2
A    3
C3
A    4
C4
A    5
C5
A    6
C6
A    7
C7
A    8
C8
A    9
C9
A   10
C10
A   11
C11
A   12
C12
A   13
C13
A   14
C14
A   15
C15
A   16
C16
A   17
C17
A   18
C18
A   19
C19
A   20
C22
A   21
C23
A   22
C24
A   23
C25
A   24
C26
A   25
C27
A   26
C28
A   27
C29
A   28
C30
A   29
O31
A   30
O32
A   31
O33
A   32
O34
A   33
O35
A   34
O36
A   35
C37
A   36
C38
A   37
O39
A   38
C20
A   39
C21
M  END
>  <Id>  (111) 
1AWH_GR3_D_1

>  <ChainId>  (111) 
D

>  <AsymId>  (111) 
F

>  <SeqNum>  (111) 
1

>  <Name>  (111) 
3-ACETOXY-17-(1-FORMYL-5-METHYL-3-OXO-HEX-4-ENYL)-16-HYDROXY-4,10,13,14-TETRAMETHYL-2,3,4,5,6,9,10,11,12,13,14,15,16,17-TETRADECAHYDRO-1H-CYCLOPENTA[A]PHENANTHRENE-4-CARBOXYLIC ACID

>  <SystematicName>  (111) 
(3R,4S,5R,9R,10R,13S,14S,16S,17S)-3-acetyloxy-16-hydroxy-4,10,13,14-tetramethyl-17-[(2R)-6-methyl-1,4-dioxo-hept-5-en-2-yl]-2,3,5,6,9,11,12,15,16,17-decahydro-1H-cyclopenta[a]phenanthrene-4-carboxylic acid

>  <Synonyms>  (111) 


>  <Type>  (111) 
NON-POLYMER

>  <Formula>  (111) 
C32 H46 O7

>  <ObservedFormula>  (111) 
C32 O7

>  <MolecularWeight>  (111) 
542.703

>  <ModifiedDate>  (111) 
2011-06-04

>  <Parent>  (111) 


>  <OneLetterCode>  (111) 


>  <SubcomponentList>  (111) 


>  <AmbiguousFlag>  (111) 
N

>  <InsertionCode>  (111) 


>  <InstanceId>  (111) 
1AWH_GR3_D_1

>  <ChemCompId>  (111) 
GR3

>  <PdbId>  (111) 
1AWH

>  <ResidueNumber>  (111) 
1

>  <InChI>  (111) 
InChI=1S/C32H46O7/c1-18(2)14-21(35)15-20(17-33)27-24(36)16-31(6)23-8-9-25-29(4,22(23)10-13-30(27,31)5)12-11-26(39-19(3)34)32(25,7)28(37)38/h8,14,17,20,22,24-27,36H,9-13,15-16H2,1-7H3,(H,37,38)/t20-,22-,24-,25+,26+,27+,29+,30-,31+,32-/m0/s1

>  <InChIKey>  (111) 
MKGUGMKLWZNKQT-DWJUSYOASA-N

>  <SMILES>  (111) 
CC(=CC(=O)C[C@@H](C=O)[C@@H]1[C@H](C[C@]2([C@]1(CC[C@H]3C2=CC[C@@H]4[C@@]3(CC[C@H]([C@@]4(C)C(=O)O)OC(=O)C)C)C)C)O)C

>  <MissingHeavyAtoms>  (111) 
0

>  <Model>  (111) 
1

>  <AltIds>  (111) 


>  <pKI>  (111) 
6.08

>  <ChemblID>  (111) 
-

>  <standardized_canonical_smiles>  (111) 
CC(=O)O[C@@H]1CC[C@]2(C)[C@H]3CC[C@@]4(C)[C@H]([C@H](C=O)CC(=O)C=C(C)C)[C@@H](O)C[C@]4(C)C3=CC[C@H]2[C@]1(C)C(=O)O

$$$$
1AWF_GR4_H_1
     RDKit          3D

 52 56  0  0  0  0  0  0  0  0999 V2000
    3.0570   17.1890   48.1100 C   0  0  0  0  0  0  0  0  0  0  0  0
    2.2460   16.0630   47.5050 C   0  0  0  0  0  0  0  0  0  0  0  0
    2.5040   14.7600   48.2240 C   0  0  0  0  0  0  0  0  0  0  0  0
    2.1650   14.9410   49.7410 C   0  0  0  0  0  0  0  0  0  0  0  0
    2.7730   16.2430   50.3890 C   0  0  0  0  0  0  0  0  0  0  0  0
    2.3860   16.5280   51.8540 C   0  0  0  0  0  0  0  0  0  0  0  0
    2.8020   17.8940   52.3250 C   0  0  0  0  0  0  0  0  0  0  0  0
    3.4680   18.7640   51.5470 C   0  0  0  0  0  0  0  0  0  0  0  0
    3.7660   18.4550   50.1050 C   0  0  0  0  0  0  0  0  0  0  0  0
    2.6890   17.5150   49.5610 C   0  0  0  0  0  0  0  0  0  0  0  0
    4.0450   19.6940   49.2510 C   0  0  0  0  0  0  0  0  0  0  0  0
    5.1570   20.5810   49.8020 C   0  0  0  0  0  0  0  0  0  0  0  0
    5.3380   20.4280   51.3360 C   0  0  0  0  0  0  0  0  0  0  0  0
    3.9420   20.1290   52.0000 C   0  0  0  0  0  0  0  0  0  0  0  0
    4.2340   20.3200   53.4920 C   0  0  0  0  0  0  0  0  0  0  0  0
    5.3350   21.3960   53.5450 C   0  0  0  0  0  0  0  0  0  0  0  0
    5.7540   21.7310   52.0950 C   0  0  0  0  0  0  0  0  0  0  0  0
    6.3570   19.3110   51.7180 C   0  0  0  0  0  0  0  0  0  0  0  0
    1.3000   18.1950   49.6370 C   0  0  0  0  0  0  0  0  0  0  0  0
    7.4530   22.9510   50.4740 C   0  0  0  0  0  0  0  0  0  0  0  0
    8.8410   22.8680   49.9490 C   0  0  0  0  0  0  0  0  0  0  0  0
    9.2080   23.4890   48.6930 C   0  0  0  0  0  0  0  0  0  0  0  0
   10.1280   22.9660   47.8640 C   0  0  0  0  0  0  0  0  0  0  0  0
   10.4070   23.6140   46.5580 C   0  0  0  0  0  0  0  0  0  0  0  0
   10.8750   21.6850   48.0980 C   0  0  0  0  0  0  0  0  0  0  0  0
    2.7720   21.1290   51.6880 C   0  0  0  0  0  0  0  0  0  0  0  0
    2.6130   13.6760   50.5080 C   0  0  0  0  0  0  0  0  0  0  0  0
    0.6220   14.9330   49.9140 C   0  0  0  0  0  0  0  0  0  0  0  0
    1.8490   13.0000   51.1270 O   0  0  0  0  0  0  0  0  0  0  0  0
    4.8200   22.5160   54.2050 O   0  0  0  0  0  0  0  0  0  0  0  0
    8.1270   23.4420   53.8040 O   0  0  0  0  0  0  0  0  0  0  0  0
    3.9150   13.3880   50.4330 O   0  0  0  0  0  0  0  0  0  0  0  0
    9.7010   22.2580   50.5270 O   0  0  0  0  0  0  0  0  0  0  0  0
    3.8840   14.3840   47.9570 O   0  0  0  0  0  0  0  0  0  0  0  0
    4.2910   13.9130   46.7640 C   0  0  0  0  0  0  0  0  0  0  0  0
    5.8000   13.8960   46.6400 C   0  0  0  0  0  0  0  0  0  0  0  0
    3.6000   13.5250   45.8740 O   0  0  0  0  0  0  0  0  0  0  0  0
    1.6670   21.1510   52.1560 O   0  0  0  0  0  0  0  0  0  0  0  0
    6.3570   20.3090   49.1050 O   0  0  0  0  0  0  0  0  0  0  0  0
    5.2730   11.4900   50.4910 O   0  0  0  0  0  0  0  0  0  0  0  0
    4.3810   12.2460   49.7010 C   0  0  0  0  0  0  0  0  0  0  0  0
    3.3250   11.2750   49.1130 C   0  0  0  0  0  0  0  0  0  0  0  0
    4.0870   10.3500   48.1410 C   0  0  0  0  0  0  0  0  0  0  0  0
    5.2620    9.6680   48.8520 C   0  0  0  0  0  0  0  0  0  0  0  0
    6.1010   10.6010   49.7410 C   0  0  0  0  0  0  0  0  0  0  0  0
    6.1340    9.1370   47.8250 O   0  0  0  0  0  0  0  0  0  0  0  0
    3.2610    9.3240   47.5380 O   0  0  0  0  0  0  0  0  0  0  0  0
    2.2510   11.8590   48.3520 O   0  0  0  0  0  0  0  0  0  0  0  0
    6.9970    9.6980   50.6350 C   0  0  0  0  0  0  0  0  0  0  0  0
    6.3500    9.2540   51.8400 O   0  0  0  0  0  0  0  0  0  0  0  0
    7.2120   22.3250   51.8900 C   0  0  0  0  0  0  0  0  0  0  0  0
    7.3830   23.4780   52.8750 C   0  0  0  0  0  0  0  0  0  0  0  0
  2  1  1  0
 10  1  1  0
  3  2  1  0
  4  3  1  0
 34  3  1  0
  5  4  1  0
 27  4  1  0
 28  4  1  0
  6  5  1  0
 10  5  1  0
  7  6  1  0
  8  7  2  0
  9  8  1  0
 14  8  1  0
 10  9  1  0
 11  9  1  0
 19 10  1  0
 12 11  1  0
 13 12  1  0
 39 12  1  0
 14 13  1  0
 17 13  1  0
 18 13  1  0
 15 14  1  0
 26 14  1  0
 16 15  1  0
 17 16  1  0
 30 16  1  0
 51 17  1  0
 21 20  1  0
 51 20  1  0
 22 21  1  0
 33 21  2  0
 23 22  2  3
 24 23  1  0
 25 23  1  0
 38 26  1  0
 29 27  2  0
 32 27  1  0
 52 31  2  0
 41 32  1  0
 35 34  1  0
 36 35  1  0
 37 35  2  0
 41 40  1  0
 45 40  1  0
 42 41  1  0
 43 42  1  0
 48 42  1  0
 44 43  1  0
 47 43  1  0
 45 44  1  0
 46 44  1  0
 49 45  1  0
 50 49  1  0
 52 51  1  0
A    1
C1
A    2
C2
A    3
C3
A    4
C4
A    5
C5
A    6
C6
A    7
C7
A    8
C8
A    9
C9
A   10
C10
A   11
C11
A   12
C12
A   13
C13
A   14
C14
A   15
C15
A   16
C16
A   17
C17
A   18
C18
A   19
C19
A   20
C22
A   21
C23
A   22
C24
A   23
C25
A   24
C26
A   25
C27
A   26
C28
A   27
C29
A   28
C30
A   29
O31
A   30
O32
A   31
O33
A   32
O34
A   33
O35
A   34
O36
A   35
C37
A   36
C38
A   37
O39
A   38
O1
A   39
O2
A   40
O3
A   41
C32
A   42
C33
A   43
C34
A   44
C35
A   45
C36
A   46
O4
A   47
O5
A   48
O6
A   49
C31
A   50
O7
A   51
C20
A   52
C21
M  END
>  <Id>  (112) 
1AWF_GR4_H_1

>  <ChainId>  (112) 
H

>  <AsymId>  (112) 
D

>  <SeqNum>  (112) 
1

>  <Name>  (112) 
R3-ACETOXY-17-(1-FORMYL-5-METHYL-3-OXO-HEX-4-ENYL)-12,16-DIHYDROXY-14-HYDROXYMETHYL-4,10,13-TRIMETHYL-2,3,4,5,6,9,10,11,12,13,14,15,16,17-TETRADECAHYDRO-1H-CYCLOPENTA[A]PHENANTHRENE-4-CARBOXYLIC ACID IDOPYRANOSYL ESTER

>  <SystematicName>  (112) 
[(2R,3S,4R,5R,6S)-3,4,5-trihydroxy-6-(hydroxymethyl)oxan-2-yl] (3R,4S,5R,9R,10R,12S,13S,14S,16S,17S)-3-acetyloxy-12,16-dihydroxy-14-(hydroxymethyl)-4,10,13-trimethyl-17-[(2R)-6-methyl-1,4-dioxo-hept-5-en-2-yl]-2,3,5,6,9,11,12,15,16,17-decahydro-1H-cyclopenta[a]phenanthrene-4-carboxylate

>  <Synonyms>  (112) 


>  <Type>  (112) 
NON-POLYMER

>  <Formula>  (112) 
C38 H56 O14

>  <ObservedFormula>  (112) 
C38 O14

>  <MolecularWeight>  (112) 
736.843

>  <ModifiedDate>  (112) 
2011-06-04

>  <Parent>  (112) 


>  <OneLetterCode>  (112) 


>  <SubcomponentList>  (112) 


>  <AmbiguousFlag>  (112) 
N

>  <InsertionCode>  (112) 


>  <InstanceId>  (112) 
1AWF_GR4_H_1

>  <ChemCompId>  (112) 
GR4

>  <PdbId>  (112) 
1AWF

>  <ResidueNumber>  (112) 
1

>  <InChI>  (112) 
InChI=1S/C38H56O14/c1-18(2)11-21(43)12-20(15-39)29-24(44)14-38(17-41)22-7-8-26-35(4,23(22)13-27(45)37(29,38)6)10-9-28(50-19(3)42)36(26,5)34(49)52-33-32(48)31(47)30(46)25(16-40)51-33/h7,11,15,20,23-33,40-41,44-48H,8-10,12-14,16-17H2,1-6H3/t20-,23-,24-,25-,26+,27-,28+,29+,30-,31+,32-,33+,35+,36-,37-,38-/m0/s1

>  <InChIKey>  (112) 
ICEIDITWEARXBX-KIWBXHNRSA-N

>  <SMILES>  (112) 
CC(=CC(=O)C[C@@H](C=O)[C@@H]1[C@H](C[C@]2([C@]1([C@H](C[C@H]3C2=CC[C@@H]4[C@@]3(CC[C@H]([C@@]4(C)C(=O)O[C@@H]5[C@H]([C@@H]([C@H]([C@@H](O5)CO)O)O)O)OC(=O)C)C)O)C)CO)O)C

>  <MissingHeavyAtoms>  (112) 
0

>  <Model>  (112) 
1

>  <AltIds>  (112) 


>  <pKI>  (112) 
6.01

>  <ChemblID>  (112) 
-

>  <standardized_canonical_smiles>  (112) 
CC(=O)O[C@@H]1CC[C@]2(C)[C@H]3C[C@H](O)[C@@]4(C)[C@H]([C@H](C=O)CC(=O)C=C(C)C)[C@@H](O)C[C@]4(CO)C3=CC[C@H]2[C@]1(C)C(=O)O[C@H]1O[C@@H](CO)[C@H](O)[C@@H](O)[C@@H]1O

$$$$
6EO9_2OJ_H_307
     RDKit          3D

 59 63  0  0  0  0  0  0  0  0999 V2000
   15.2550   -6.5960   10.6420 Cl  0  0  0  0  0  0  0  0  0  0  0  0
   15.4890   -8.0980   11.6090 C   0  0  0  0  0  0  0  0  0  0  0  0
   14.5980   -8.4750   12.9280 S   0  0  0  0  0  0  0  0  0  0  0  0
   16.3690   -9.0960   11.3840 C   0  0  0  0  0  0  0  0  0  0  0  0
   16.2760  -10.0920   12.2910 C   0  0  0  0  0  0  0  0  0  0  0  0
   15.3510   -9.8530   13.2260 C   0  0  0  0  0  0  0  0  0  0  0  0
   15.0160  -10.6550   14.1870 C   0  0  0  0  0  0  0  0  0  0  0  0
   14.3870  -10.3460   15.1330 O   0  0  0  0  0  0  0  0  0  0  0  0
   14.1590  -11.3700   15.8760 N   0  0  0  0  0  0  0  0  0  0  0  0
   15.2410  -11.9630   14.1720 C   0  0  0  0  0  0  0  0  0  0  0  0
   14.7030  -12.4220   15.2780 C   0  0  0  0  0  0  0  0  0  0  0  0
   14.6970  -13.9120   15.7290 C   0  0  0  0  0  0  0  0  0  0  0  0
   13.5890  -14.6380   15.1240 O   0  0  0  0  0  0  0  0  0  0  0  0
   13.7560  -15.8930   14.5550 C   0  0  0  0  0  0  0  0  0  0  0  0
   14.6830  -16.8310   14.9710 C   0  0  0  0  0  0  0  0  0  0  0  0
   14.7800  -18.0680   14.3300 C   0  0  0  0  0  0  0  0  0  0  0  0
   13.9350  -18.4140   13.2750 C   0  0  0  0  0  0  0  0  0  0  0  0
   12.9370  -16.2570   13.4820 C   0  0  0  0  0  0  0  0  0  0  0  0
   12.0500  -15.4190   13.0280 N   0  0  0  0  0  0  0  0  0  0  0  0
   10.7860  -15.7660   13.0980 C   0  0  0  0  0  0  0  0  0  0  0  0
    9.8520  -14.7650   12.4050 C   0  0  0  0  0  0  0  0  0  0  0  0
    8.5560  -14.7840   13.0450 C   0  0  0  0  0  0  0  0  0  0  0  0
    7.7700  -13.7190   12.4210 C   0  0  0  0  0  0  0  0  0  0  0  0
    7.4740  -13.9950   11.0130 N   0  0  0  0  0  0  0  0  0  0  0  0
    6.8150  -12.7910   10.5070 C   0  0  0  0  0  0  0  0  0  0  0  0
    5.3240  -12.9560   10.5600 C   0  0  0  0  0  0  0  0  0  0  0  0
    7.1490  -12.4510    9.0910 C   0  0  0  0  0  0  0  0  0  0  0  0
    8.6950  -14.2380   10.2600 C   0  0  0  0  0  0  0  0  0  0  0  0
    9.6480  -15.1740   10.9840 C   0  0  0  0  0  0  0  0  0  0  0  0
   10.3690  -16.7630   13.6800 O   0  0  0  0  0  0  0  0  0  0  0  0
   13.0130  -17.4850   12.8180 C   0  0  0  0  0  0  0  0  0  0  0  0
   12.1080  -17.7330   11.7980 O   0  0  0  0  0  0  0  0  0  0  0  0
   12.4410  -18.2550   10.5320 C   0  0  0  0  0  0  0  0  0  0  0  0
   11.3430  -19.2080   10.0120 C   0  0  0  0  0  0  0  0  0  0  0  0
    9.9320  -18.8310   10.5000 C   0  0  0  0  0  0  0  0  0  0  0  0
    9.0050  -19.9070   10.2990 O   0  0  0  0  0  0  0  0  0  0  0  0
    7.9520  -19.7850    9.2680 C   0  0  0  0  0  0  0  0  0  0  0  0
    7.0160  -18.6160    9.2160 O   0  0  0  0  0  0  0  0  0  0  0  0
    7.1520  -21.0760    9.3280 C   0  0  0  0  0  0  0  0  0  0  0  0
    8.0460  -22.2440    9.3250 O   0  0  0  0  0  0  0  0  0  0  0  0
    8.0710  -22.7850   10.5690 C   0  0  0  0  0  0  0  0  0  0  0  0
    8.9060  -22.5050   11.4240 O   0  0  0  0  0  0  0  0  0  0  0  0
    6.9600  -23.8160   10.8670 C   0  0  0  0  0  0  0  0  0  0  0  0
    6.2380  -21.1650    8.1240 C   0  0  0  0  0  0  0  0  0  0  0  0
    5.5780  -22.4450    8.2100 O   0  0  0  0  0  0  0  0  0  0  0  0
    5.4200  -22.7960    6.9240 C   0  0  0  0  0  0  0  0  0  0  0  0
    6.6060  -23.5430    6.3230 C   0  0  0  0  0  0  0  0  0  0  0  0
    4.4430  -22.4850    6.2650 O   0  0  0  0  0  0  0  0  0  0  0  0
    5.2120  -20.0530    8.1670 C   0  0  0  0  0  0  0  0  0  0  0  0
    4.2310  -20.0660    7.0290 O   0  0  0  0  0  0  0  0  0  0  0  0
    2.9720  -19.6770    7.4050 C   0  0  0  0  0  0  0  0  0  0  0  0
    2.5150  -20.2190    8.7530 C   0  0  0  0  0  0  0  0  0  0  0  0
    2.2310  -18.9520    6.7400 O   0  0  0  0  0  0  0  0  0  0  0  0
    5.9260  -18.7270    8.1820 C   0  0  0  0  0  0  0  0  0  0  0  0
    4.7950  -17.6780    8.3100 C   0  0  0  0  0  0  0  0  0  0  0  0
    4.9180  -16.7330    7.2710 O   0  0  0  0  0  0  0  0  0  0  0  0
    3.6630  -16.2250    6.9420 C   0  0  0  0  0  0  0  0  0  0  0  0
    2.6220  -16.3690    7.5940 O   0  0  0  0  0  0  0  0  0  0  0  0
    3.6350  -15.4090    5.6550 C   0  0  0  0  0  0  0  0  0  0  0  0
  2  1  1  0
  3  2  1  0
  4  2  2  0
  6  3  1  0
  5  4  1  0
  6  5  2  0
  7  6  1  0
  8  7  1  0
 10  7  2  0
  9  8  1  0
 11  9  2  0
 11 10  1  0
 12 11  1  0
 13 12  1  0
 14 13  1  0
 15 14  2  0
 18 14  1  0
 16 15  1  0
 17 16  2  0
 31 17  1  0
 19 18  1  0
 31 18  2  0
 20 19  1  0
 21 20  1  0
 30 20  2  0
 22 21  1  0
 29 21  1  0
 23 22  1  0
 24 23  1  0
 25 24  1  0
 28 24  1  0
 26 25  1  0
 27 25  1  0
 29 28  1  0
 32 31  1  0
 33 32  1  0
 34 33  1  0
 35 34  1  0
 36 35  1  0
 37 36  1  0
 38 37  1  0
 39 37  1  0
 54 38  1  0
 40 39  1  0
 44 39  1  0
 41 40  1  0
 42 41  2  0
 43 41  1  0
 45 44  1  0
 49 44  1  0
 46 45  1  0
 47 46  1  0
 48 46  2  0
 50 49  1  0
 54 49  1  0
 51 50  1  0
 52 51  1  0
 53 51  2  0
 55 54  1  0
 56 55  1  0
 57 56  1  0
 58 57  2  0
 59 57  1  0
A    1
CL1
A    2
C2
A    3
S3
A    4
C4
A    5
C5
A    6
C6
A    7
C7
A    8
O8
A    9
N9
A   10
C10
A   11
C11
A   12
C12
A   13
O13
A   14
C14
A   15
C15
A   16
C16
A   17
C17
A   18
C19
A   19
N20
A   20
C21
A   21
C22
A   22
C23
A   23
C24
A   24
N25
A   25
C26
A   26
C27
A   27
C28
A   28
C29
A   29
C30
A   30
O31
A   31
C18
A   32
O32
A   33
C33
A   34
C34
A   35
C35
A   36
O36
A   37
C37
A   38
O38
A   39
C46
A   40
O47
A   41
C85
A   42
O86
A   43
C87
A   44
C44
A   45
O45
A   46
C88
A   47
C89
A   48
O90
A   49
C42
A   50
O42
A   51
C91
A   52
C92
A   53
O93
A   54
C39
A   55
C40
A   56
O41
A   57
C94
A   58
O96
A   59
C95
M  END
>  <Id>  (113) 
6EO9_2OJ_H_307

>  <ChainId>  (113) 
H

>  <AsymId>  (113) 
J

>  <SeqNum>  (113) 
307

>  <Name>  (113) 
N-(2-{[5-(5-chlorothiophen-2-yl)-1,2-oxazol-3-yl]methoxy}-6-{3-[(2,3,4,6-tetra-O-acetyl-beta-D-glucopyranosyl)oxy]propoxy}phenyl)-1-(propan-2-yl)piperidine-4-carboxamide

>  <SystematicName>  (113) 
[(2R,3R,4S,5R,6R)-3,4,5-triacetyloxy-6-[3-[3-[[5-(5-chloranylthiophen-2-yl)-1,2-oxazol-3-yl]methoxy]-2-[(1-propan-2-ylpiperidin-4-yl)carbonylamino]phenoxy]propoxy]oxan-2-yl]methyl ethanoate

>  <Synonyms>  (113) 


>  <Type>  (113) 
NON-POLYMER

>  <Formula>  (113) 
C40 H50 Cl N3 O14 S

>  <ObservedFormula>  (113) 
C40 S Cl N3 O14

>  <MolecularWeight>  (113) 
864.355

>  <ModifiedDate>  (113) 
2014-01-10

>  <Parent>  (113) 


>  <OneLetterCode>  (113) 


>  <SubcomponentList>  (113) 


>  <AmbiguousFlag>  (113) 
N

>  <InsertionCode>  (113) 


>  <InstanceId>  (113) 
6EO9_2OJ_H_307

>  <ChemCompId>  (113) 
2OJ

>  <PdbId>  (113) 
6EO9

>  <ResidueNumber>  (113) 
307

>  <InChI>  (113) 
InChI=1S/C40H50ClN3O14S/c1-22(2)44-15-13-27(14-16-44)39(49)42-35-29(9-7-10-30(35)53-20-28-19-31(58-43-28)33-11-12-34(41)59-33)50-17-8-18-51-40-38(56-26(6)48)37(55-25(5)47)36(54-24(4)46)32(57-40)21-52-23(3)45/h7,9-12,19,22,27,32,36-38,40H,8,13-18,20-21H2,1-6H3,(H,42,49)/t32-,36-,37+,38-,40-/m1/s1

>  <InChIKey>  (113) 
GNVQZTIXGHEXLF-NIURAOKHSA-N

>  <SMILES>  (113) 
CC(C)N1CCC(CC1)C(=O)Nc2c(cccc2OCc3cc(on3)c4ccc(s4)Cl)OCCCO[C@H]5[C@@H]([C@H]([C@@H]([C@H](O5)COC(=O)C)OC(=O)C)OC(=O)C)OC(=O)C

>  <MissingHeavyAtoms>  (113) 
0

>  <Model>  (113) 
1

>  <AltIds>  (113) 


>  <pKI>  (113) 
6.8

>  <ChemblID>  (113) 
-

>  <standardized_canonical_smiles>  (113) 
CC(=O)OC[C@H]1O[C@@H](OCCCOc2cccc(OCc3cc(-c4ccc(Cl)s4)on3)c2NC(=O)C2CCN(C(C)C)CC2)[C@H](OC(C)=O)[C@@H](OC(C)=O)[C@@H]1OC(C)=O

$$$$
3SI4_B04_H_1
     RDKit          3D

 27 29  0  0  0  0  0  0  0  0999 V2000
   16.6960  -15.5690   23.2920 N   0  0  0  0  0  0  0  0  0  0  0  0
   17.9550  -14.8470   23.2990 C   0  0  0  0  0  0  0  0  0  0  0  0
   17.7070  -13.4920   22.6930 C   0  0  0  0  0  0  0  0  0  0  0  0
   16.7810  -12.7970   23.0920 O   0  0  0  0  0  0  0  0  0  0  0  0
   18.4400  -14.7650   24.7430 C   0  0  0  0  0  0  0  0  0  0  0  0
   19.8390  -14.2060   24.8030 C   0  0  0  0  0  0  0  0  0  0  0  0
   20.9130  -14.8860   24.2310 C   0  0  0  0  0  0  0  0  0  0  0  0
   20.0440  -13.0020   25.4600 C   0  0  0  0  0  0  0  0  0  0  0  0
   22.1940  -14.3480   24.3120 C   0  0  0  0  0  0  0  0  0  0  0  0
   21.3220  -12.4660   25.5340 C   0  0  0  0  0  0  0  0  0  0  0  0
   22.3970  -13.1350   24.9610 C   0  0  0  0  0  0  0  0  0  0  0  0
   18.5140  -13.0720   21.7160 N   0  0  0  0  0  0  0  0  0  0  0  0
   18.2630  -11.7660   21.1060 C   0  0  0  0  0  0  0  0  0  0  0  0
   16.8660  -11.7520   20.5410 C   0  0  0  0  0  0  0  0  0  0  0  0
   16.4590  -12.7100   19.8990 O   0  0  0  0  0  0  0  0  0  0  0  0
   19.2930  -11.6620   19.9880 C   0  0  0  0  0  0  0  0  0  0  0  0
   20.3510  -12.6940   20.3150 C   0  0  0  0  0  0  0  0  0  0  0  0
   19.6530  -13.7790   21.1240 C   0  0  0  0  0  0  0  0  0  0  0  0
   16.0900  -10.6930   20.7800 N   0  0  0  0  0  0  0  0  0  0  0  0
   14.7210  -10.5330   20.2950 C   0  0  0  0  0  0  0  0  0  0  0  0
   13.7290  -10.4070   21.4310 C   0  0  0  0  0  0  0  0  0  0  0  0
   13.5170   -9.1730   22.0410 C   0  0  0  0  0  0  0  0  0  0  0  0
   12.6090   -9.0770   23.0860 C   0  0  0  0  0  0  0  0  0  0  0  0
   11.9200  -10.2160   23.4870 C   0  0  0  0  0  0  0  0  0  0  0  0
   12.1690  -11.4190   22.8380 C   0  0  0  0  0  0  0  0  0  0  0  0
   13.0570  -11.4940   21.8380 N   0  0  0  0  0  0  0  0  0  0  0  0
   13.2920  -12.7830   21.1790 C   0  0  0  0  0  0  0  0  0  0  0  0
  2  1  1  0
  3  2  1  0
  5  2  1  0
  4  3  2  0
 12  3  1  0
  6  5  1  0
  7  6  2  0
  8  6  1  0
  9  7  1  0
 10  8  2  0
 11  9  2  0
 11 10  1  0
 13 12  1  0
 18 12  1  0
 14 13  1  0
 16 13  1  0
 15 14  2  0
 19 14  1  0
 17 16  1  0
 18 17  1  0
 20 19  1  0
 21 20  1  0
 22 21  2  0
 26 21  1  0
 23 22  1  0
 24 23  2  0
 25 24  1  0
 26 25  2  0
 27 26  1  0
M  CHG  1  26   1
A    1
N4
A    2
C3
A    3
C5
A    4
O7
A    5
C2
A    6
C1
A    7
C8
A    8
C12
A    9
C9
A   10
C11
A   11
C10
A   12
N6
A   13
C13
A   14
C14
A   15
O15
A   16
C19
A   17
C20
A   18
C21
A   19
N16
A   20
C17
A   21
C18
A   22
C22
A   23
C23
A   24
C24
A   25
C25
A   26
N26
A   27
C27
M  END
>  <Id>  (114) 
3SI4_B04_H_1

>  <ChainId>  (114) 
H

>  <AsymId>  (114) 
E

>  <SeqNum>  (114) 
1

>  <Name>  (114) 
D-phenylalanyl-N-[(1-methylpyridinium-2-yl)methyl]-L-prolinamide

>  <SystematicName>  (114) 
(2S)-1-[(2R)-2-azanyl-3-phenyl-propanoyl]-N-[(1-methylpyridin-1-ium-2-yl)methyl]pyrrolidine-2-carboxamide

>  <Synonyms>  (114) 


>  <Type>  (114) 
peptide-like

>  <Formula>  (114) 
C21 H27 N4 O2

>  <ObservedFormula>  (114) 
C21 N4 O2

>  <MolecularWeight>  (114) 
367.465

>  <ModifiedDate>  (114) 
2012-06-15

>  <Parent>  (114) 


>  <OneLetterCode>  (114) 


>  <SubcomponentList>  (114) 
DPN PRO NNZ

>  <AmbiguousFlag>  (114) 
N

>  <InsertionCode>  (114) 


>  <InstanceId>  (114) 
3SI4_B04_H_1

>  <ChemCompId>  (114) 
B04

>  <PdbId>  (114) 
3SI4

>  <ResidueNumber>  (114) 
1

>  <InChI>  (114) 
InChI=1S/C21H26N4O2/c1-24-12-6-5-10-17(24)15-23-20(26)19-11-7-13-25(19)21(27)18(22)14-16-8-3-2-4-9-16/h2-6,8-10,12,18-19H,7,11,13-15,22H2,1H3/p+1/t18-,19+/m1/s1

>  <InChIKey>  (114) 
GWFYERFSYVJQNW-MOPGFXCFSA-O

>  <SMILES>  (114) 
C[n+]1ccccc1CNC(=O)[C@@H]2CCCN2C(=O)[C@@H](Cc3ccccc3)N

>  <MissingHeavyAtoms>  (114) 
0

>  <Model>  (114) 
1

>  <AltIds>  (114) 


>  <pKI>  (114) 
3.88

>  <ChemblID>  (114) 
-

>  <standardized_canonical_smiles>  (114) 
C[n+]1ccccc1CNC(=O)[C@@H]1CCCN1C(=O)[C@H](N)Cc1ccccc1

$$$$
3QTO_10P_H_1001
     RDKit          3D

 27 29  0  0  0  0  0  0  0  0999 V2000
   16.2450  -16.0150   22.9050 N   0  0  0  0  0  0  0  0  0  0  0  0
   17.5270  -15.3320   22.9680 C   0  0  0  0  0  0  0  0  0  0  0  0
   17.3150  -13.9460   22.4080 C   0  0  0  0  0  0  0  0  0  0  0  0
   16.4100  -13.2450   22.8480 O   0  0  0  0  0  0  0  0  0  0  0  0
   17.9810  -15.3150   24.4320 C   0  0  0  0  0  0  0  0  0  0  0  0
   19.3940  -14.7950   24.5660 C   0  0  0  0  0  0  0  0  0  0  0  0
   19.6390  -13.7000   25.3810 C   0  0  0  0  0  0  0  0  0  0  0  0
   20.4430  -15.4020   23.8780 C   0  0  0  0  0  0  0  0  0  0  0  0
   20.9260  -13.2020   25.5000 C   0  0  0  0  0  0  0  0  0  0  0  0
   21.7350  -14.9070   24.0050 C   0  0  0  0  0  0  0  0  0  0  0  0
   21.9760  -13.8030   24.8140 C   0  0  0  0  0  0  0  0  0  0  0  0
   18.1100  -13.5150   21.4340 N   0  0  0  0  0  0  0  0  0  0  0  0
   17.9050  -12.1760   20.8580 C   0  0  0  0  0  0  0  0  0  0  0  0
   16.5020  -12.0120   20.3250 C   0  0  0  0  0  0  0  0  0  0  0  0
   15.9740  -12.8780   19.6250 O   0  0  0  0  0  0  0  0  0  0  0  0
   18.9370  -12.0970   19.7400 C   0  0  0  0  0  0  0  0  0  0  0  0
   19.9880  -13.1470   20.0810 C   0  0  0  0  0  0  0  0  0  0  0  0
   19.2240  -14.2400   20.8090 C   0  0  0  0  0  0  0  0  0  0  0  0
   14.4710  -10.6000   20.2420 C   0  0  0  0  0  0  0  0  0  0  0  0
   13.4610  -11.2050   21.1990 C   0  0  0  0  0  0  0  0  0  0  0  0
   12.8040  -10.4460   22.1600 C   0  0  0  0  0  0  0  0  0  0  0  0
   11.2320  -10.1850   24.0120 C   0  0  0  0  0  0  0  0  0  0  0  0
   11.6370  -12.3130   22.9410 C   0  0  0  0  0  0  0  0  0  0  0  0
   12.2650  -13.1190   22.0010 C   0  0  0  0  0  0  0  0  0  0  0  0
   13.1920  -12.5690   21.1300 C   0  0  0  0  0  0  0  0  0  0  0  0
   15.8480  -10.9030   20.6690 N   0  0  0  0  0  0  0  0  0  0  0  0
   11.9160  -11.0010   22.9970 N   0  0  0  0  0  0  0  0  0  0  0  0
  2  1  1  0
  3  2  1  0
  5  2  1  0
  4  3  2  0
 12  3  1  0
  6  5  1  0
  7  6  2  0
  8  6  1  0
  9  7  1  0
 10  8  2  0
 11  9  2  0
 11 10  1  0
 13 12  1  0
 18 12  1  0
 14 13  1  0
 16 13  1  0
 15 14  2  0
 26 14  1  0
 17 16  1  0
 18 17  1  0
 20 19  1  0
 26 19  1  0
 21 20  2  0
 25 20  1  0
 27 21  1  0
 27 22  1  0
 24 23  1  0
 27 23  2  0
 25 24  2  0
M  CHG  1  27   1
A    1
N22
A    2
C3
A    3
C4
A    4
O24
A    5
C2
A    6
C1
A    7
C5
A    8
C9
A    9
C6
A   10
C8
A   11
C7
A   12
N23
A   13
C10
A   14
C11
A   15
O25
A   16
C14
A   17
C15
A   18
C16
A   19
C12
A   20
C13
A   21
C17
A   22
C18
A   23
C19
A   24
C20
A   25
C21
A   26
N26
A   27
N27
M  END
>  <Id>  (115) 
3QTO_10P_H_1001

>  <ChainId>  (115) 
H

>  <AsymId>  (115) 
E

>  <SeqNum>  (115) 
1001

>  <Name>  (115) 
D-phenylalanyl-N-[(1-methylpyridinium-3-yl)methyl]-L-prolinamide

>  <SystematicName>  (115) 
(2S)-1-[(2R)-2-azanyl-3-phenyl-propanoyl]-N-[(1-methylpyridin-1-ium-3-yl)methyl]pyrrolidine-2-carboxamide

>  <Synonyms>  (115) 


>  <Type>  (115) 
peptide-like

>  <Formula>  (115) 
C21 H27 N4 O2

>  <ObservedFormula>  (115) 
C21 N4 O2

>  <MolecularWeight>  (115) 
367.465

>  <ModifiedDate>  (115) 
2012-02-24

>  <Parent>  (115) 


>  <OneLetterCode>  (115) 


>  <SubcomponentList>  (115) 
DPN PRO NNJ

>  <AmbiguousFlag>  (115) 
N

>  <InsertionCode>  (115) 


>  <InstanceId>  (115) 
3QTO_10P_H_1001

>  <ChemCompId>  (115) 
10P

>  <PdbId>  (115) 
3QTO

>  <ResidueNumber>  (115) 
1001

>  <InChI>  (115) 
InChI=1S/C21H26N4O2/c1-24-11-5-9-17(15-24)14-23-20(26)19-10-6-12-25(19)21(27)18(22)13-16-7-3-2-4-8-16/h2-5,7-9,11,15,18-19H,6,10,12-14,22H2,1H3/p+1/t18-,19+/m1/s1

>  <InChIKey>  (115) 
RQARGWNLRRMMGY-MOPGFXCFSA-O

>  <SMILES>  (115) 
C[n+]1cccc(c1)CNC(=O)[C@@H]2CCCN2C(=O)[C@@H](Cc3ccccc3)N

>  <MissingHeavyAtoms>  (115) 
0

>  <Model>  (115) 
1

>  <AltIds>  (115) 


>  <pKI>  (115) 
4.13

>  <ChemblID>  (115) 
-

>  <standardized_canonical_smiles>  (115) 
C[n+]1cccc(CNC(=O)[C@@H]2CCCN2C(=O)[C@H](N)Cc2ccccc2)c1

$$$$
3QX5_02P_H_5
     RDKit          3D

 28 30  0  0  0  0  0  0  0  0999 V2000
   16.4240  -15.5120   23.3060 N   0  0  0  0  0  0  0  0  0  0  0  0
   17.6850  -14.7880   23.3080 C   0  0  0  0  0  0  0  0  0  0  0  0
   17.4080  -13.4370   22.7140 C   0  0  0  0  0  0  0  0  0  0  0  0
   16.4780  -12.7610   23.1340 O   0  0  0  0  0  0  0  0  0  0  0  0
   18.1720  -14.6910   24.7490 C   0  0  0  0  0  0  0  0  0  0  0  0
   19.5740  -14.1400   24.8310 C   0  0  0  0  0  0  0  0  0  0  0  0
   19.7810  -12.9810   25.5680 C   0  0  0  0  0  0  0  0  0  0  0  0
   20.6460  -14.7660   24.1940 C   0  0  0  0  0  0  0  0  0  0  0  0
   21.0550  -12.4410   25.6690 C   0  0  0  0  0  0  0  0  0  0  0  0
   21.9240  -14.2220   24.2990 C   0  0  0  0  0  0  0  0  0  0  0  0
   22.1300  -13.0620   25.0390 C   0  0  0  0  0  0  0  0  0  0  0  0
   18.1760  -13.0170   21.7070 N   0  0  0  0  0  0  0  0  0  0  0  0
   17.8850  -11.7110   21.1120 C   0  0  0  0  0  0  0  0  0  0  0  0
   16.4510  -11.6410   20.6420 C   0  0  0  0  0  0  0  0  0  0  0  0
   15.9570  -12.5680   20.0060 O   0  0  0  0  0  0  0  0  0  0  0  0
   18.8570  -11.6130   19.9430 C   0  0  0  0  0  0  0  0  0  0  0  0
   19.9600  -12.6050   20.2520 C   0  0  0  0  0  0  0  0  0  0  0  0
   19.3160  -13.6980   21.0900 C   0  0  0  0  0  0  0  0  0  0  0  0
   12.2700   -7.5340   24.5420 Cl  0  0  0  0  0  0  0  0  0  0  0  0
   15.7480  -10.5500   20.9450 N   0  0  0  0  0  0  0  0  0  0  0  0
   14.3550  -10.3360   20.5670 C   0  0  0  0  0  0  0  0  0  0  0  0
   13.4280  -10.2790   21.7690 C   0  0  0  0  0  0  0  0  0  0  0  0
   12.7200  -11.3620   22.1460 N   0  0  0  0  0  0  0  0  0  0  0  0
   13.3000   -9.0870   22.4730 C   0  0  0  0  0  0  0  0  0  0  0  0
   12.4470   -9.0340   23.5760 C   0  0  0  0  0  0  0  0  0  0  0  0
   11.7230  -10.1610   23.9420 C   0  0  0  0  0  0  0  0  0  0  0  0
   11.8890  -11.3200   23.2010 C   0  0  0  0  0  0  0  0  0  0  0  0
   12.8480  -12.6260   21.4090 C   0  0  0  0  0  0  0  0  0  0  0  0
  2  1  1  0
  3  2  1  0
  5  2  1  0
  4  3  2  0
 12  3  1  0
  6  5  1  0
  7  6  2  0
  8  6  1  0
  9  7  1  0
 10  8  2  0
 11  9  2  0
 11 10  1  0
 13 12  1  0
 18 12  1  0
 14 13  1  0
 16 13  1  0
 15 14  2  0
 20 14  1  0
 17 16  1  0
 18 17  1  0
 25 19  1  0
 21 20  1  0
 22 21  1  0
 23 22  2  0
 24 22  1  0
 27 23  1  0
 28 23  1  0
 25 24  2  0
 26 25  1  0
 27 26  2  0
M  CHG  1  23   1
A    1
N10
A    2
C8
A    3
C9
A    4
O12
A    5
C7
A    6
C4
A    7
C3
A    8
C5
A    9
C26
A   10
C6
A   11
C1
A   12
N11
A   13
C13
A   14
C17
A   15
O28
A   16
C15
A   17
C16
A   18
C14
A   19
CL2
A   20
N18
A   21
C19
A   22
C20
A   23
N21
A   24
C22
A   25
C23
A   26
C24
A   27
C25
A   28
C27
M  END
>  <Id>  (116) 
3QX5_02P_H_5

>  <ChainId>  (116) 
H

>  <AsymId>  (116) 
I

>  <SeqNum>  (116) 
5

>  <Name>  (116) 
D-phenylalanyl-N-[(4-chloro-1-methylpyridinium-2-yl)methyl]-L-prolinamide

>  <SystematicName>  (116) 
(2S)-1-[(2R)-2-azanyl-3-phenyl-propanoyl]-N-[(4-chloro-1-methyl-pyridin-1-ium-2-yl)methyl]pyrrolidine-2-carboxamide

>  <Synonyms>  (116) 


>  <Type>  (116) 
peptide-like

>  <Formula>  (116) 
C21 H26 Cl N4 O2

>  <ObservedFormula>  (116) 
C21 Cl N4 O2

>  <MolecularWeight>  (116) 
401.91

>  <ModifiedDate>  (116) 
2012-03-02

>  <Parent>  (116) 


>  <OneLetterCode>  (116) 


>  <SubcomponentList>  (116) 
DPN PRO NNX

>  <AmbiguousFlag>  (116) 
N

>  <InsertionCode>  (116) 


>  <InstanceId>  (116) 
3QX5_02P_H_5

>  <ChemCompId>  (116) 
02P

>  <PdbId>  (116) 
3QX5

>  <ResidueNumber>  (116) 
5

>  <InChI>  (116) 
InChI=1S/C21H25ClN4O2/c1-25-11-9-16(22)13-17(25)14-24-20(27)19-8-5-10-26(19)21(28)18(23)12-15-6-3-2-4-7-15/h2-4,6-7,9,11,13,18-19H,5,8,10,12,14,23H2,1H3/p+1/t18-,19+/m1/s1

>  <InChIKey>  (116) 
BNDOLKJAONQVEV-MOPGFXCFSA-O

>  <SMILES>  (116) 
C[n+]1ccc(cc1CNC(=O)[C@@H]2CCCN2C(=O)[C@@H](Cc3ccccc3)N)Cl

>  <MissingHeavyAtoms>  (116) 
0

>  <Model>  (116) 
1

>  <AltIds>  (116) 


>  <pKI>  (116) 
4.2

>  <ChemblID>  (116) 
-

>  <standardized_canonical_smiles>  (116) 
C[n+]1ccc(Cl)cc1CNC(=O)[C@@H]1CCCN1C(=O)[C@H](N)Cc1ccccc1

$$$$
3QWC_98P_H_2001
     RDKit          3D

 28 30  0  0  0  0  0  0  0  0999 V2000
   16.3970  -15.3470   23.1690 N   0  0  0  0  0  0  0  0  0  0  0  0
   17.6100  -14.5520   23.2980 C   0  0  0  0  0  0  0  0  0  0  0  0
   17.3580  -13.1950   22.6970 C   0  0  0  0  0  0  0  0  0  0  0  0
   16.3610  -12.5520   23.0190 O   0  0  0  0  0  0  0  0  0  0  0  0
   18.0050  -14.4560   24.7780 C   0  0  0  0  0  0  0  0  0  0  0  0
   19.4320  -13.9630   24.9000 C   0  0  0  0  0  0  0  0  0  0  0  0
   20.4820  -14.7060   24.3680 C   0  0  0  0  0  0  0  0  0  0  0  0
   19.6990  -12.7720   25.5610 C   0  0  0  0  0  0  0  0  0  0  0  0
   21.7910  -14.2420   24.4870 C   0  0  0  0  0  0  0  0  0  0  0  0
   21.0030  -12.3100   25.6770 C   0  0  0  0  0  0  0  0  0  0  0  0
   22.0540  -13.0480   25.1400 C   0  0  0  0  0  0  0  0  0  0  0  0
   18.2460  -12.7420   21.8050 N   0  0  0  0  0  0  0  0  0  0  0  0
   18.0340  -11.4370   21.1770 C   0  0  0  0  0  0  0  0  0  0  0  0
   16.7110  -11.4310   20.4770 C   0  0  0  0  0  0  0  0  0  0  0  0
   16.3900  -12.3850   19.7730 O   0  0  0  0  0  0  0  0  0  0  0  0
   19.1650  -11.2950   20.1670 C   0  0  0  0  0  0  0  0  0  0  0  0
   20.2070  -12.3360   20.5570 C   0  0  0  0  0  0  0  0  0  0  0  0
   19.4590  -13.4130   21.3270 C   0  0  0  0  0  0  0  0  0  0  0  0
   14.5970  -10.2330   20.0690 C   0  0  0  0  0  0  0  0  0  0  0  0
   13.6110  -11.0090   20.9210 C   0  0  0  0  0  0  0  0  0  0  0  0
   13.4330  -12.3730   20.7490 C   0  0  0  0  0  0  0  0  0  0  0  0
   12.3950  -14.4910   21.3050 C   0  0  0  0  0  0  0  0  0  0  0  0
   11.8350  -12.4310   22.4530 C   0  0  0  0  0  0  0  0  0  0  0  0
   11.9720  -11.0690   22.6730 C   0  0  0  0  0  0  0  0  0  0  0  0
   12.8680  -10.3690   21.8820 C   0  0  0  0  0  0  0  0  0  0  0  0
   15.9190  -10.3750   20.6700 N   0  0  0  0  0  0  0  0  0  0  0  0
   12.5620  -13.0480   21.5090 N   0  0  0  0  0  0  0  0  0  0  0  0
   13.0960   -8.6210   22.1220 Cl  0  0  0  0  0  0  0  0  0  0  0  0
  2  1  1  0
  3  2  1  0
  5  2  1  0
  4  3  2  0
 12  3  1  0
  6  5  1  0
  7  6  2  0
  8  6  1  0
  9  7  1  0
 10  8  2  0
 11  9  2  0
 11 10  1  0
 13 12  1  0
 18 12  1  0
 14 13  1  0
 16 13  1  0
 15 14  2  0
 26 14  1  0
 17 16  1  0
 18 17  1  0
 20 19  1  0
 26 19  1  0
 21 20  2  0
 25 20  1  0
 27 21  1  0
 27 22  1  0
 24 23  1  0
 27 23  2  0
 25 24  2  0
 28 25  1  0
M  CHG  1  27   1
A    1
N22
A    2
C3
A    3
C4
A    4
O26
A    5
C2
A    6
C1
A    7
C5
A    8
C9
A    9
C6
A   10
C8
A   11
C7
A   12
N23
A   13
C10
A   14
C11
A   15
O27
A   16
C14
A   17
C15
A   18
C16
A   19
C12
A   20
C13
A   21
C17
A   22
C18
A   23
C19
A   24
C20
A   25
C21
A   26
N24
A   27
N25
A   28
CL28
M  END
>  <Id>  (117) 
3QWC_98P_H_2001

>  <ChainId>  (117) 
H

>  <AsymId>  (117) 
H

>  <SeqNum>  (117) 
2001

>  <Name>  (117) 
D-phenylalanyl-N-[(4-chloro-1-methylpyridinium-3-yl)methyl]-L-prolinamide

>  <SystematicName>  (117) 
(2S)-1-[(2R)-2-azanyl-3-phenyl-propanoyl]-N-[(4-chloro-1-methyl-pyridin-1-ium-3-yl)methyl]pyrrolidine-2-carboxamide

>  <Synonyms>  (117) 


>  <Type>  (117) 
peptide-like

>  <Formula>  (117) 
C21 H26 Cl N4 O2

>  <ObservedFormula>  (117) 
C21 Cl N4 O2

>  <MolecularWeight>  (117) 
401.91

>  <ModifiedDate>  (117) 
2012-03-09

>  <Parent>  (117) 


>  <OneLetterCode>  (117) 


>  <SubcomponentList>  (117) 
DPN PRO NNT

>  <AmbiguousFlag>  (117) 
N

>  <InsertionCode>  (117) 


>  <InstanceId>  (117) 
3QWC_98P_H_2001

>  <ChemCompId>  (117) 
98P

>  <PdbId>  (117) 
3QWC

>  <ResidueNumber>  (117) 
2001

>  <InChI>  (117) 
InChI=1S/C21H25ClN4O2/c1-25-11-9-17(22)16(14-25)13-24-20(27)19-8-5-10-26(19)21(28)18(23)12-15-6-3-2-4-7-15/h2-4,6-7,9,11,14,18-19H,5,8,10,12-13,23H2,1H3/p+1/t18-,19+/m1/s1

>  <InChIKey>  (117) 
FZBNWDIVSYUHIW-MOPGFXCFSA-O

>  <SMILES>  (117) 
C[n+]1ccc(c(c1)CNC(=O)[C@@H]2CCCN2C(=O)[C@@H](Cc3ccccc3)N)Cl

>  <MissingHeavyAtoms>  (117) 
0

>  <Model>  (117) 
1

>  <AltIds>  (117) 


>  <pKI>  (117) 
4.26

>  <ChemblID>  (117) 
-

>  <standardized_canonical_smiles>  (117) 
C[n+]1ccc(Cl)c(CNC(=O)[C@@H]2CCCN2C(=O)[C@H](N)Cc2ccccc2)c1

$$$$
3QTV_06P_H_1001
     RDKit          3D

 27 29  0  0  0  0  0  0  0  0999 V2000
   16.3240  -15.5750   23.1220 N   0  0  0  0  0  0  0  0  0  0  0  0
   17.5740  -14.8360   23.1290 C   0  0  0  0  0  0  0  0  0  0  0  0
   17.3340  -13.4700   22.5350 C   0  0  0  0  0  0  0  0  0  0  0  0
   16.4020  -12.7660   22.9200 O   0  0  0  0  0  0  0  0  0  0  0  0
   18.0670  -14.7750   24.5810 C   0  0  0  0  0  0  0  0  0  0  0  0
   19.4860  -14.2600   24.6610 C   0  0  0  0  0  0  0  0  0  0  0  0
   19.7430  -13.0940   25.3650 C   0  0  0  0  0  0  0  0  0  0  0  0
   20.5370  -14.9340   24.0400 C   0  0  0  0  0  0  0  0  0  0  0  0
   21.0300  -12.5830   25.4470 C   0  0  0  0  0  0  0  0  0  0  0  0
   21.8300  -14.4270   24.1340 C   0  0  0  0  0  0  0  0  0  0  0  0
   22.0810  -13.2550   24.8330 C   0  0  0  0  0  0  0  0  0  0  0  0
   18.1550  -13.0590   21.5740 N   0  0  0  0  0  0  0  0  0  0  0  0
   17.9440  -11.7490   20.9560 C   0  0  0  0  0  0  0  0  0  0  0  0
   16.5540  -11.6290   20.3890 C   0  0  0  0  0  0  0  0  0  0  0  0
   16.0470  -12.5660   19.7770 O   0  0  0  0  0  0  0  0  0  0  0  0
   18.9730  -11.7000   19.8310 C   0  0  0  0  0  0  0  0  0  0  0  0
   20.0360  -12.7230   20.2060 C   0  0  0  0  0  0  0  0  0  0  0  0
   19.2970  -13.7850   21.0070 C   0  0  0  0  0  0  0  0  0  0  0  0
   15.9050  -10.4820   20.5940 N   0  0  0  0  0  0  0  0  0  0  0  0
   14.5420  -10.2290   20.0990 C   0  0  0  0  0  0  0  0  0  0  0  0
   13.5360  -10.4590   21.2090 C   0  0  0  0  0  0  0  0  0  0  0  0
   13.2030   -9.4420   22.1000 C   0  0  0  0  0  0  0  0  0  0  0  0
   12.2790   -9.6970   23.1090 C   0  0  0  0  0  0  0  0  0  0  0  0
   11.7190  -10.9100   23.2440 N   0  0  0  0  0  0  0  0  0  0  0  0
   10.7470  -11.1450   24.3190 C   0  0  0  0  0  0  0  0  0  0  0  0
   12.0350  -11.9080   22.4010 C   0  0  0  0  0  0  0  0  0  0  0  0
   12.9460  -11.7040   21.3730 C   0  0  0  0  0  0  0  0  0  0  0  0
  2  1  1  0
  3  2  1  0
  5  2  1  0
  4  3  2  0
 12  3  1  0
  6  5  1  0
  7  6  2  0
  8  6  1  0
  9  7  1  0
 10  8  2  0
 11  9  2  0
 11 10  1  0
 13 12  1  0
 18 12  1  0
 14 13  1  0
 16 13  1  0
 15 14  2  0
 19 14  1  0
 17 16  1  0
 18 17  1  0
 20 19  1  0
 21 20  1  0
 22 21  2  0
 27 21  1  0
 23 22  1  0
 24 23  2  0
 25 24  1  0
 26 24  1  0
 27 26  2  0
M  CHG  1  24   1
A    1
N4
A    2
C3
A    3
C5
A    4
O7
A    5
C2
A    6
C1
A    7
C8
A    8
C12
A    9
C9
A   10
C11
A   11
C10
A   12
N6
A   13
C13
A   14
C14
A   15
O15
A   16
C19
A   17
C20
A   18
C21
A   19
N16
A   20
C17
A   21
C18
A   22
C22
A   23
C23
A   24
N24
A   25
C25
A   26
C26
A   27
C27
M  END
>  <Id>  (118) 
3QTV_06P_H_1001

>  <ChainId>  (118) 
H

>  <AsymId>  (118) 
E

>  <SeqNum>  (118) 
1001

>  <Name>  (118) 
D-phenylalanyl-N-[(1-methylpyridinium-4-yl)methyl]-L-prolinamide

>  <SystematicName>  (118) 
(2S)-1-[(2R)-2-azanyl-3-phenyl-propanoyl]-N-[(1-methylpyridin-1-ium-4-yl)methyl]pyrrolidine-2-carboxamide

>  <Synonyms>  (118) 


>  <Type>  (118) 
peptide-like

>  <Formula>  (118) 
C21 H27 N4 O2

>  <ObservedFormula>  (118) 
C21 N4 O2

>  <MolecularWeight>  (118) 
367.465

>  <ModifiedDate>  (118) 
2012-02-24

>  <Parent>  (118) 


>  <OneLetterCode>  (118) 


>  <SubcomponentList>  (118) 
DPN PRO NNK

>  <AmbiguousFlag>  (118) 
N

>  <InsertionCode>  (118) 


>  <InstanceId>  (118) 
3QTV_06P_H_1001

>  <ChemCompId>  (118) 
06P

>  <PdbId>  (118) 
3QTV

>  <ResidueNumber>  (118) 
1001

>  <InChI>  (118) 
InChI=1S/C21H26N4O2/c1-24-12-9-17(10-13-24)15-23-20(26)19-8-5-11-25(19)21(27)18(22)14-16-6-3-2-4-7-16/h2-4,6-7,9-10,12-13,18-19H,5,8,11,14-15,22H2,1H3/p+1/t18-,19+/m1/s1

>  <InChIKey>  (118) 
XPNLMZJVXKGMFM-MOPGFXCFSA-O

>  <SMILES>  (118) 
C[n+]1ccc(cc1)CNC(=O)[C@@H]2CCCN2C(=O)[C@@H](Cc3ccccc3)N

>  <MissingHeavyAtoms>  (118) 
0

>  <Model>  (118) 
1

>  <AltIds>  (118) 


>  <pKI>  (118) 
4.65

>  <ChemblID>  (118) 
-

>  <standardized_canonical_smiles>  (118) 
C[n+]1ccc(CNC(=O)[C@@H]2CCCN2C(=O)[C@H](N)Cc2ccccc2)cc1

$$$$
1A4W_QWE_H_373
     RDKit          3D

 42 45  0  0  0  0  0  0  0  0999 V2000
   17.7350  -17.1780   22.6120 C   0  0  0  0  0  0  0  0  0  0  0  0
   18.5430  -17.3500   21.4620 C   0  0  0  0  0  0  0  0  0  0  0  0
   19.8770  -17.0460   21.5580 C   0  0  0  0  0  0  0  0  0  0  0  0
   20.4010  -16.5660   22.7660 C   0  0  0  0  0  0  0  0  0  0  0  0
   19.6130  -16.3580   23.8930 C   0  0  0  0  0  0  0  0  0  0  0  0
   20.0840  -15.7910   25.0460 C   0  0  0  0  0  0  0  0  0  0  0  0
   19.2410  -15.5680   26.1140 C   0  0  0  0  0  0  0  0  0  0  0  0
   17.8930  -15.9710   26.0280 C   0  0  0  0  0  0  0  0  0  0  0  0
   17.3700  -16.5100   24.8790 C   0  0  0  0  0  0  0  0  0  0  0  0
   18.2050  -16.6890   23.8090 C   0  0  0  0  0  0  0  0  0  0  0  0
   21.3830  -15.2850   25.1040 N   0  0  0  0  0  0  0  0  0  0  0  0
   21.8980  -14.2170   24.2140 C   0  0  0  0  0  0  0  0  0  0  0  0
   22.6350  -16.2130   25.4960 C   0  0  0  0  0  0  0  0  0  0  0  0
   15.9090  -17.5810   22.4170 S   0  0  0  0  0  0  0  0  0  0  0  0
   15.9880  -18.0130   21.0100 O   0  0  0  0  0  0  0  0  0  0  0  0
   14.9980  -18.1910   23.4020 O   0  0  0  0  0  0  0  0  0  0  0  0
   14.8930  -15.9700   22.4850 N   0  0  0  0  0  0  0  0  0  0  0  0
   15.1930  -15.1140   21.2960 C   0  0  0  0  0  0  0  0  0  0  0  0
   16.3070  -14.1670   21.7520 C   0  0  0  0  0  0  0  0  0  0  0  0
   16.2120  -13.7810   22.9140 O   0  0  0  0  0  0  0  0  0  0  0  0
   13.9420  -14.3540   20.8790 C   0  0  0  0  0  0  0  0  0  0  0  0
   13.2320  -13.6860   22.0580 C   0  0  0  0  0  0  0  0  0  0  0  0
   11.8920  -13.1330   21.5950 C   0  0  0  0  0  0  0  0  0  0  0  0
   11.2180  -12.6470   22.7800 N   0  0  0  0  0  0  0  0  0  0  0  0
   11.4570  -11.5540   23.4830 C   0  0  0  0  0  0  0  0  0  0  0  0
   12.3590  -10.6740   23.0450 N   0  0  0  0  0  0  0  0  0  0  0  0
   10.7230  -11.3360   24.5660 N   0  0  0  0  0  0  0  0  0  0  0  0
   17.2800  -13.6920   20.8300 N   0  0  0  0  0  0  0  0  0  0  0  0
   17.0430  -14.0330   19.3270 C   0  0  0  0  0  0  0  0  0  0  0  0
   18.4210  -14.4720   18.8090 C   0  0  0  0  0  0  0  0  0  0  0  0
   19.6100  -13.4170   19.1940 C   0  0  0  0  0  0  0  0  0  0  0  0
   19.6960  -13.0830   20.7650 C   0  0  0  0  0  0  0  0  0  0  0  0
   18.3510  -12.6800   21.3100 C   0  0  0  0  0  0  0  0  0  0  0  0
   16.5930  -13.0140   18.5500 C   0  0  0  0  0  0  0  0  0  0  0  0
   15.9410  -13.4250   17.1790 C   0  0  0  0  0  0  0  0  0  0  0  0
   15.7830  -14.9040   14.4580 S   0  0  0  0  0  0  0  0  0  0  0  0
   17.4880  -11.9220   16.2870 O   0  0  0  0  0  0  0  0  0  0  0  0
   17.0590  -15.5830   13.5080 C   0  0  0  0  0  0  0  0  0  0  0  0
   16.8640  -13.5560   14.7390 C   0  0  0  0  0  0  0  0  0  0  0  0
   16.8250  -12.9030   16.1070 C   0  0  0  0  0  0  0  0  0  0  0  0
   18.1460  -14.7340   13.4510 C   0  0  0  0  0  0  0  0  0  0  0  0
   18.0490  -13.5540   14.1060 N   0  0  0  0  0  0  0  0  0  0  0  0
  2  1  2  0
 10  1  1  0
 14  1  1  0
  3  2  1  0
  4  3  2  0
  5  4  1  0
  6  5  1  0
 10  5  2  0
  7  6  2  0
 11  6  1  0
  8  7  1  0
  9  8  2  0
 10  9  1  0
 12 11  1  0
 13 11  1  0
 15 14  2  0
 16 14  2  0
 17 14  1  0
 18 17  1  0
 19 18  1  0
 21 18  1  0
 20 19  2  0
 28 19  1  0
 22 21  1  0
 23 22  1  0
 24 23  1  0
 25 24  1  0
 26 25  1  0
 27 25  2  0
 29 28  1  0
 33 28  1  0
 30 29  1  0
 34 29  1  0
 31 30  1  0
 32 31  1  0
 33 32  1  0
 35 34  1  0
 40 35  1  0
 38 36  1  0
 39 36  1  0
 40 37  2  0
 41 38  2  0
 40 39  1  0
 42 39  2  0
 42 41  1  0
M  CHG  1  27   1
A    1
C1
A    2
C2
A    3
C3
A    4
C4
A    5
C4A
A    6
C5
A    7
C6
A    8
C7
A    9
C8
A   10
C8A
A   11
N
A   12
CM1
A   13
CM2
A   14
S
A   15
O1S
A   16
O2S
A   17
N1
A   18
CA
A   19
C
A   20
O
A   21
CB
A   22
CG
A   23
CD
A   24
NE
A   25
CZ
A   26
NH1
A   27
NH2
A   28
N11
A   29
C21
A   30
C31
A   31
C41
A   32
C51
A   33
C61
A   34
C1'
A   35
C2'
A   36
S1
A   37
O2
A   38
C52
A   39
C22
A   40
C2'1
A   41
C42
A   42
N3
M  END
>  <Id>  (119) 
1A4W_QWE_H_373

>  <ChainId>  (119) 
H

>  <AsymId>  (119) 
F

>  <SeqNum>  (119) 
373

>  <Name>  (119) 
amino{[(4S)-4-({[5-(dimethylamino)naphthalen-1-yl]sulfonyl}amino)-5-oxo-5-{(2R)-2-[3-oxo-3-(1,3-thiazol-2-yl)propyl]piperidin-1-yl}pentyl]amino}methaniminium

>  <SystematicName>  (119) 
[azanyl-[[(4S)-4-[[5-(dimethylamino)naphthalen-1-yl]sulfonylamino]-5-oxo-5-[(2R)-2-[3-oxo-3-(1,3-thiazol-2-yl)propyl]piperidin-1-yl]pentyl]amino]methylidene]azanium

>  <Synonyms>  (119) 
RWJ-50215

>  <Type>  (119) 
peptide-like

>  <Formula>  (119) 
C29 H40 N7 O4 S2

>  <ObservedFormula>  (119) 
C29 S2 N7 O4

>  <MolecularWeight>  (119) 
614.802

>  <ModifiedDate>  (119) 
2011-07-13

>  <Parent>  (119) 


>  <OneLetterCode>  (119) 


>  <SubcomponentList>  (119) 
ANS ARG 5TP

>  <AmbiguousFlag>  (119) 
N

>  <InsertionCode>  (119) 


>  <InstanceId>  (119) 
1A4W_QWE_H_373

>  <ChemCompId>  (119) 
QWE

>  <PdbId>  (119) 
1A4W

>  <ResidueNumber>  (119) 
373

>  <InChI>  (119) 
InChI=1S/C29H39N7O4S2/c1-35(2)24-12-5-10-22-21(24)9-6-13-26(22)42(39,40)34-23(11-7-16-33-29(30)31)28(38)36-18-4-3-8-20(36)14-15-25(37)27-32-17-19-41-27/h5-6,9-10,12-13,17,19-20,23,34H,3-4,7-8,11,14-16,18H2,1-2H3,(H4,30,31,33)/p+1/t20-,23+/m1/s1

>  <InChIKey>  (119) 
KACDHMPRLCAESX-OFNKIYASSA-O

>  <SMILES>  (119) 
CN(C)c1cccc2c1cccc2S(=O)(=O)N[C@@H](CCCNC(=[NH2+])N)C(=O)N3CCCC[C@@H]3CCC(=O)c4nccs4

>  <MissingHeavyAtoms>  (119) 
0

>  <Model>  (119) 
1

>  <AltIds>  (119) 


>  <pKI>  (119) 
5.92

>  <ChemblID>  (119) 
-

>  <standardized_canonical_smiles>  (119) 
CN(C)c1cccc2c(S(=O)(=O)N[C@@H](CCCNC(N)=[NH2+])C(=O)N3CCCC[C@@H]3CCC(=O)c3nccs3)cccc12

$$$$
1AD8_MDL_H_250
     RDKit          3D

 40 43  0  0  0  0  0  0  0  0999 V2000
   12.1050   -5.6480   22.6300 C   0  0  0  0  0  0  0  0  0  0  0  0
   15.7770   -5.4260   15.9940 C   0  0  0  0  0  0  0  0  0  0  0  0
   15.8950  -11.0370   23.5940 N   0  0  0  0  0  0  0  0  0  0  0  0
   14.2680   -5.9280   19.5570 C   0  0  0  0  0  0  0  0  0  0  0  0
   21.5280  -10.1140   24.5930 C   0  0  0  0  0  0  0  0  0  0  0  0
   13.3210   -4.8120   17.7850 O   0  0  0  0  0  0  0  0  0  0  0  0
   14.5960   -5.1330   18.3040 C   0  0  0  0  0  0  0  0  0  0  0  0
   15.6120   -8.4180   20.0790 O   0  0  0  0  0  0  0  0  0  0  0  0
   15.1490  -11.2790   22.3630 C   0  0  0  0  0  0  0  0  0  0  0  0
   11.4250   -4.2820   24.5990 C   0  0  0  0  0  0  0  0  0  0  0  0
   17.1720  -10.3510   23.5120 C   0  0  0  0  0  0  0  0  0  0  0  0
   18.5890   -7.1580   20.2290 C   0  0  0  0  0  0  0  0  0  0  0  0
   13.2860   -5.1530   20.4200 C   0  0  0  0  0  0  0  0  0  0  0  0
   16.6030   -6.2760   17.8850 F   0  0  0  0  0  0  0  0  0  0  0  0
   15.4280   -6.0350   17.3240 C   0  0  0  0  0  0  0  0  0  0  0  0
   20.8140   -8.2520   26.0010 C   0  0  0  0  0  0  0  0  0  0  0  0
   17.7300   -8.5700   21.9090 N   0  0  0  0  0  0  0  0  0  0  0  0
   21.8340   -8.9550   25.3220 C   0  0  0  0  0  0  0  0  0  0  0  0
   20.1800  -10.5490   24.4860 C   0  0  0  0  0  0  0  0  0  0  0  0
   16.0790   -7.3500   20.4530 C   0  0  0  0  0  0  0  0  0  0  0  0
   19.0080   -9.1800   21.4450 C   0  0  0  0  0  0  0  0  0  0  0  0
   11.3890   -6.7300   23.1110 C   0  0  0  0  0  0  0  0  0  0  0  0
   14.8260   -7.2230   17.1640 F   0  0  0  0  0  0  0  0  0  0  0  0
   19.1330   -9.8040   25.1100 C   0  0  0  0  0  0  0  0  0  0  0  0
   16.3750   -6.3770   15.3350 F   0  0  0  0  0  0  0  0  0  0  0  0
   12.1290   -4.4380   23.3850 C   0  0  0  0  0  0  0  0  0  0  0  0
   15.8720   -8.3520   23.2220 O   0  0  0  0  0  0  0  0  0  0  0  0
   17.4130   -7.2910   21.1840 C   0  0  0  0  0  0  0  0  0  0  0  0
   14.6780   -5.0860   15.4090 F   0  0  0  0  0  0  0  0  0  0  0  0
   19.6880   -8.0480   20.6850 C   0  0  0  0  0  0  0  0  0  0  0  0
   15.4790   -6.1370   20.3520 N   0  0  0  0  0  0  0  0  0  0  0  0
   12.6970   -6.0570   21.4030 C   0  0  0  0  0  0  0  0  0  0  0  0
   16.8650   -8.9970   22.8660 C   0  0  0  0  0  0  0  0  0  0  0  0
   12.3900   -7.3920   21.1870 C   0  0  0  0  0  0  0  0  0  0  0  0
   10.6560   -6.5940   24.3180 C   0  0  0  0  0  0  0  0  0  0  0  0
   17.6590  -10.1940   24.9630 C   0  0  0  0  0  0  0  0  0  0  0  0
   11.6000   -7.7830   22.2130 N   0  0  0  0  0  0  0  0  0  0  0  0
   16.5910   -4.3950   16.1330 F   0  0  0  0  0  0  0  0  0  0  0  0
   10.6700   -5.3780   25.0520 C   0  0  0  0  0  0  0  0  0  0  0  0
   19.4730   -8.6740   25.8890 C   0  0  0  0  0  0  0  0  0  0  0  0
 30 12  1  0
 24 40  2  0
 24 19  1  0
  7 15  1  0
 11 36  1  0
  2 25  1  0
  2 29  1  0
 10 26  2  0
 13 32  1  0
 33 27  2  0
 19  5  2  0
  7  6  2  0
 17 21  1  0
 21 30  1  0
 15  2  1  0
  4 13  1  0
 17 28  1  0
  9  3  1  0
 18 16  2  0
 22 37  1  0
 11 33  1  0
 34 37  1  0
 22 35  1  0
  5 18  1  0
 31  4  1  0
  4  7  1  0
  1 26  1  0
 33 17  1  0
 20  8  2  0
  1 22  2  0
 12 28  1  0
  2 38  1  0
 20 31  1  0
  3 11  1  0
 15 14  1  0
 36 24  1  0
 32 34  2  0
 32  1  1  0
 15 23  1  0
 16 40  1  0
 28 20  1  0
 35 39  2  0
 39 10  1  0
A    1
C31
A    2
C50
A    3
N2
A    4
C25
A    5
C61
A    6
O46
A    7
C44
A    8
O24
A    9
C1
A   10
C36
A   11
C6
A   12
C15
A   13
C26
A   14
F49
A   15
C47
A   16
C63
A   17
N8
A   18
C62
A   19
C60
A   20
C21
A   21
C11
A   22
C32
A   23
F48
A   24
C57
A   25
F51
A   26
C37
A   27
O9
A   28
C18
A   29
F53
A   30
C12
A   31
N23
A   32
C27
A   33
C7
A   34
C30
A   35
C34
A   36
C55
A   37
N33
A   38
F52
A   39
C35
A   40
C64
M  END
>  <InstanceId>  (120) 
1AD8_MDL

>  <ChemCompId>  (120) 
MDL

>  <PdbId>  (120) 
1AD8

>  <ChainId>  (120) 
H

>  <ResidueNumber>  (120) 
250

>  <InsertionCode>  (120) 
null

>  <Model>  (120) 
1

>  <AltIds>  (120) 


>  <MissingHeavyAtoms>  (120) 
0

>  <ObservedFormula>  (120) 
C28 N4 O3 F5

>  <AsymId>  (120) 
E

>  <SeqNum>  (120) 
250

>  <Name>  (120) 
[DEHYDROXY-N-METHYL-TYROSYL-PROLINYL]-[4,4,5,5,5-PENTAFLUORO-3-OXY-1-[3-INDOLYL]-PENT-2-YL]AMINE

>  <SystematicName>  (120) 
(2S)-1-[(2R)-2-(methylamino)-3-phenyl-propanoyl]-N-[(2S)-4,4,5,5,5-pentafluoro-1-(1H-indol-3-yl)-3-oxo-pentan-2-yl]pyrrolidine-2-carboxamide

>  <Synonyms>  (120) 


>  <Type>  (120) 
peptide-like

>  <Formula>  (120) 
C28 H29 F5 N4 O3

>  <MolecularWeight>  (120) 
564.547

>  <ModifiedDate>  (120) 
2011-06-04

>  <Parent>  (120) 


>  <OneLetterCode>  (120) 


>  <SubcomponentList>  (120) 
ZAE PRO 01C

>  <AmbiguousFlag>  (120) 
N

>  <InChI>  (120) 
InChI=1S/C28H29F5N4O3/c1-34-22(14-17-8-3-2-4-9-17)26(40)37-13-7-12-23(37)25(39)36-21(24(38)27(29,30)28(31,32)33)15-18-16-35-20-11-6-5-10-19(18)20/h2-6,8-11,16,21-23,34-35H,7,12-15H2,1H3,(H,36,39)/t21-,22+,23-/m0/s1

>  <InChIKey>  (120) 
WFJABZVISMTOSO-ZRBLBEILSA-N

>  <SMILES>  (120) 
CN[C@H](Cc1ccccc1)C(=O)N2CCC[C@H]2C(=O)N[C@@H](Cc3c[nH]c4c3cccc4)C(=O)C(C(F)(F)F)(F)F

>  <pKI>  (120) 
6.6

>  <ChemblID>  (120) 
-

>  <standardized_canonical_smiles>  (120) 
CN[C@H](Cc1ccccc1)C(=O)N1CCC[C@H]1C(=O)N[C@@H](Cc1c[nH]c2ccccc12)C(=O)C(F)(F)C(F)(F)F

$$$$
4BAM_MM9_B_1287
     RDKit          3D

 33 35  0  0  0  0  0  0  0  0999 V2000
   18.7580  -14.4100   24.2350 C   0  0  0  0  0  0  0  0  0  0  0  0
   18.8850  -15.7670   24.9610 C   0  0  0  0  0  0  0  0  0  0  0  0
   19.4730  -15.5880   26.3700 C   0  0  0  0  0  0  0  0  0  0  0  0
   20.8280  -14.8600   26.3120 C   0  0  0  0  0  0  0  0  0  0  0  0
   20.6840  -13.4900   25.6230 C   0  0  0  0  0  0  0  0  0  0  0  0
   20.1280  -13.6970   24.2010 C   0  0  0  0  0  0  0  0  0  0  0  0
   16.9340  -15.3900   22.8200 N   0  0  0  0  0  0  0  0  0  0  0  0
   18.2000  -14.6130   22.8030 C   0  0  0  0  0  0  0  0  0  0  0  0
   17.9120  -13.2740   22.1670 C   0  0  0  0  0  0  0  0  0  0  0  0
   16.8690  -12.6920   22.4490 O   0  0  0  0  0  0  0  0  0  0  0  0
   18.7370  -12.6980   21.2700 N   0  0  0  0  0  0  0  0  0  0  0  0
   18.5550  -11.5070   20.4350 C   0  0  0  0  0  0  0  0  0  0  0  0
   17.1810  -11.6540   19.8010 C   0  0  0  0  0  0  0  0  0  0  0  0
   16.8790  -12.6960   19.2430 O   0  0  0  0  0  0  0  0  0  0  0  0
   16.2590  -10.6940   19.9950 N   0  0  0  0  0  0  0  0  0  0  0  0
   14.9020  -10.8410   19.4620 C   0  0  0  0  0  0  0  0  0  0  0  0
   13.9440  -10.8230   20.6240 C   0  0  0  0  0  0  0  0  0  0  0  0
   13.3340   -9.6230   20.9720 C   0  0  0  0  0  0  0  0  0  0  0  0
   12.4450   -9.5740   22.0260 C   0  0  0  0  0  0  0  0  0  0  0  0
   12.2150  -10.7340   22.7870 C   0  0  0  0  0  0  0  0  0  0  0  0
   12.8420  -11.9450   22.4370 C   0  0  0  0  0  0  0  0  0  0  0  0
   13.7010  -11.9780   21.3440 C   0  0  0  0  0  0  0  0  0  0  0  0
   11.2270  -10.6890   23.8950 C   0  0  0  0  0  0  0  0  0  0  0  0
   10.9340   -9.5600   24.4770 N   0  0  0  0  0  0  0  0  0  0  0  0
   10.5360  -11.8340   24.2760 N   0  0  0  0  0  0  0  0  0  0  0  0
   19.7440  -11.8950   19.5470 C   0  0  0  0  0  0  0  0  0  0  0  0
   19.9830  -13.0310   20.5500 C   0  0  0  0  0  0  0  0  0  0  0  0
   16.3400  -15.6770   21.4820 C   0  0  0  0  0  0  0  0  0  0  0  0
   14.6100  -15.5200   19.0600 C   0  0  0  0  0  0  0  0  0  0  0  0
   14.8200  -15.6910   21.5430 C   0  0  0  0  0  0  0  0  0  0  0  0
   14.2730  -15.7660   22.6390 O   0  0  0  0  0  0  0  0  0  0  0  0
   12.5630  -15.5960   20.5270 C   0  0  0  0  0  0  0  0  0  0  0  0
   14.0380  -15.6080   20.4160 N   0  0  0  0  0  0  0  0  0  0  0  0
  2  1  1  0
  6  1  1  0
  8  1  1  0
  3  2  1  0
  4  3  1  0
  5  4  1  0
  6  5  1  0
  8  7  1  0
 28  7  1  0
  9  8  1  0
 10  9  2  0
 11  9  1  0
 12 11  1  0
 27 11  1  0
 13 12  1  0
 26 12  1  0
 14 13  2  0
 15 13  1  0
 16 15  1  0
 17 16  1  0
 18 17  2  0
 22 17  1  0
 19 18  1  0
 20 19  2  0
 21 20  1  0
 23 20  1  0
 22 21  2  0
 24 23  2  0
 25 23  1  0
 27 26  1  0
 30 28  1  0
 33 29  1  0
 31 30  2  0
 33 30  1  0
 33 32  1  0
A    1
C1
A    2
C2
A    3
C3
A    4
C4
A    5
C5
A    6
C6
A    7
N7
A    8
C8
A    9
C9
A   10
O0
A   11
N11
A   12
C12
A   13
C13
A   14
O14
A   15
N15
A   16
C16
A   17
C17
A   18
C18
A   19
C19
A   20
C20
A   21
C21
A   22
C22
A   23
C23
A   24
N24
A   25
N25
A   26
C26
A   27
C27
A   28
C28
A   29
C10
A   30
C29
A   31
O30
A   32
C30
A   33
N2
M  END
>  <Id>  (121) 
4BAM_MM9_B_1287

>  <ChainId>  (121) 
B

>  <AsymId>  (121) 
E

>  <SeqNum>  (121) 
1287

>  <Name>  (121) 
(2S)-N-[(4-carbamimidoylphenyl)methyl]-1-[(2R)-2-cyclohexyl-2-[[2-(dimethylamino)-2-oxidanylidene-ethyl]amino]ethanoyl]azetidine-2-carboxamide

>  <SystematicName>  (121) 
(2S)-N-[(4-carbamimidoylphenyl)methyl]-1-[(2R)-2-cyclohexyl-2-[[2-(dimethylamino)-2-oxidanylidene-ethyl]amino]ethanoyl]azetidine-2-carboxamide

>  <Synonyms>  (121) 


>  <Type>  (121) 
non-polymer

>  <Formula>  (121) 
C24 H36 N6 O3

>  <ObservedFormula>  (121) 
C24 N6 O3

>  <MolecularWeight>  (121) 
456.581

>  <ModifiedDate>  (121) 
2014-09-05

>  <Parent>  (121) 


>  <OneLetterCode>  (121) 


>  <SubcomponentList>  (121) 


>  <AmbiguousFlag>  (121) 
N

>  <InsertionCode>  (121) 


>  <InstanceId>  (121) 
4BAM_MM9_B_1287

>  <ChemCompId>  (121) 
MM9

>  <PdbId>  (121) 
4BAM

>  <ResidueNumber>  (121) 
1287

>  <InChI>  (121) 
InChI=1S/C24H36N6O3/c1-29(2)20(31)15-27-21(17-6-4-3-5-7-17)24(33)30-13-12-19(30)23(32)28-14-16-8-10-18(11-9-16)22(25)26/h8-11,17,19,21,27H,3-7,12-15H2,1-2H3,(H3,25,26)(H,28,32)/t19-,21+/m0/s1

>  <InChIKey>  (121) 
UBUHFANKPRTXGI-PZJWPPBQSA-N

>  <SMILES>  (121) 
[H]/N=C(/c1ccc(cc1)CNC(=O)[C@@H]2CCN2C(=O)[C@@H](C3CCCCC3)NCC(=O)N(C)C)\N

>  <MissingHeavyAtoms>  (121) 
0

>  <Model>  (121) 
1

>  <AltIds>  (121) 


>  <pKI>  (121) 
8.94

>  <ChemblID>  (121) 
-

>  <standardized_canonical_smiles>  (121) 
CN(C)C(=O)CN[C@@H](C(=O)N1CC[C@H]1C(=O)NCc1ccc(C(=N)N)cc1)C1CCCCC1

$$$$
4BAN_M6S_B_1287
     RDKit          3D

 32 34  0  0  0  0  0  0  0  0999 V2000
   18.7550  -14.5330   24.3130 C   0  0  0  0  0  0  0  0  0  0  0  0
   18.9820  -15.9020   24.9910 C   0  0  0  0  0  0  0  0  0  0  0  0
   19.5380  -15.7040   26.4150 C   0  0  0  0  0  0  0  0  0  0  0  0
   20.8480  -14.8930   26.3990 C   0  0  0  0  0  0  0  0  0  0  0  0
   20.6360  -13.5210   25.7340 C   0  0  0  0  0  0  0  0  0  0  0  0
   20.0780  -13.7220   24.3110 C   0  0  0  0  0  0  0  0  0  0  0  0
   16.9120  -15.4810   22.9110 N   0  0  0  0  0  0  0  0  0  0  0  0
   18.1870  -14.7150   22.8850 C   0  0  0  0  0  0  0  0  0  0  0  0
   17.8930  -13.3740   22.2670 C   0  0  0  0  0  0  0  0  0  0  0  0
   16.8400  -12.8000   22.5530 O   0  0  0  0  0  0  0  0  0  0  0  0
   18.7300  -12.7970   21.3670 N   0  0  0  0  0  0  0  0  0  0  0  0
   18.5620  -11.5920   20.5480 C   0  0  0  0  0  0  0  0  0  0  0  0
   17.1940  -11.7130   19.9190 C   0  0  0  0  0  0  0  0  0  0  0  0
   16.9030  -12.7360   19.3270 O   0  0  0  0  0  0  0  0  0  0  0  0
   16.2630  -10.7680   20.1290 N   0  0  0  0  0  0  0  0  0  0  0  0
   14.9340  -10.9720   19.5560 C   0  0  0  0  0  0  0  0  0  0  0  0
   13.9560  -10.9430   20.6920 C   0  0  0  0  0  0  0  0  0  0  0  0
   13.4490   -9.7210   21.0990 C   0  0  0  0  0  0  0  0  0  0  0  0
   12.5350   -9.6630   22.1360 C   0  0  0  0  0  0  0  0  0  0  0  0
   12.1730  -10.8340   22.8130 C   0  0  0  0  0  0  0  0  0  0  0  0
   12.7020  -12.0710   22.3980 C   0  0  0  0  0  0  0  0  0  0  0  0
   13.5990  -12.1160   21.3380 C   0  0  0  0  0  0  0  0  0  0  0  0
   11.1560  -10.7780   23.9000 C   0  0  0  0  0  0  0  0  0  0  0  0
   10.4320  -11.8410   24.1870 N   0  0  0  0  0  0  0  0  0  0  0  0
   10.8940   -9.5970   24.5570 N   0  0  0  0  0  0  0  0  0  0  0  0
   19.7500  -11.9790   19.6520 C   0  0  0  0  0  0  0  0  0  0  0  0
   19.9870  -13.1160   20.6570 C   0  0  0  0  0  0  0  0  0  0  0  0
   16.3280  -15.8450   21.5910 C   0  0  0  0  0  0  0  0  0  0  0  0
   14.8150  -15.9560   21.6790 C   0  0  0  0  0  0  0  0  0  0  0  0
   14.2850  -16.3140   22.7220 O   0  0  0  0  0  0  0  0  0  0  0  0
   12.5900  -15.6930   20.5780 C   0  0  0  0  0  0  0  0  0  0  0  0
   14.0640  -15.6410   20.5900 N   0  0  0  0  0  0  0  0  0  0  0  0
  2  1  1  0
  6  1  1  0
  8  1  1  0
  3  2  1  0
  4  3  1  0
  5  4  1  0
  6  5  1  0
  8  7  1  0
 28  7  1  0
  9  8  1  0
 10  9  2  0
 11  9  1  0
 12 11  1  0
 27 11  1  0
 13 12  1  0
 26 12  1  0
 14 13  2  0
 15 13  1  0
 16 15  1  0
 17 16  1  0
 18 17  2  0
 22 17  1  0
 19 18  1  0
 20 19  2  0
 21 20  1  0
 23 20  1  0
 22 21  2  0
 24 23  2  0
 25 23  1  0
 27 26  1  0
 29 28  1  0
 30 29  2  0
 32 29  1  0
 32 31  1  0
A    1
C1
A    2
C2
A    3
C3
A    4
C4
A    5
C5
A    6
C6
A    7
N7
A    8
C8
A    9
C9
A   10
O0
A   11
N11
A   12
C12
A   13
C13
A   14
O14
A   15
N15
A   16
C16
A   17
C17
A   18
C18
A   19
C19
A   20
C20
A   21
C21
A   22
C22
A   23
C23
A   24
N24
A   25
N25
A   26
C26
A   27
C27
A   28
C28
A   29
C29
A   30
O30
A   31
C10
A   32
N2
M  END
>  <Id>  (122) 
4BAN_M6S_B_1287

>  <ChainId>  (122) 
B

>  <AsymId>  (122) 
E

>  <SeqNum>  (122) 
1287

>  <Name>  (122) 
(2S)-N-[(4-carbamimidoylphenyl)methyl]-1-[(2R)-2-cyclohexyl-2-[[2-(methylamino)-2-oxidanylidene-ethyl]amino]ethanoyl]azetidine-2-carboxamide

>  <SystematicName>  (122) 
(2S)-N-[(4-carbamimidoylphenyl)methyl]-1-[(2R)-2-cyclohexyl-2-[[2-(methylamino)-2-oxidanylidene-ethyl]amino]ethanoyl]azetidine-2-carboxamide

>  <Synonyms>  (122) 


>  <Type>  (122) 
non-polymer

>  <Formula>  (122) 
C23 H34 N6 O3

>  <ObservedFormula>  (122) 
C23 N6 O3

>  <MolecularWeight>  (122) 
442.554

>  <ModifiedDate>  (122) 
2014-09-05

>  <Parent>  (122) 


>  <OneLetterCode>  (122) 


>  <SubcomponentList>  (122) 


>  <AmbiguousFlag>  (122) 
N

>  <InsertionCode>  (122) 


>  <InstanceId>  (122) 
4BAN_M6S_B_1287

>  <ChemCompId>  (122) 
M6S

>  <PdbId>  (122) 
4BAN

>  <ResidueNumber>  (122) 
1287

>  <InChI>  (122) 
InChI=1S/C23H34N6O3/c1-26-19(30)14-27-20(16-5-3-2-4-6-16)23(32)29-12-11-18(29)22(31)28-13-15-7-9-17(10-8-15)21(24)25/h7-10,16,18,20,27H,2-6,11-14H2,1H3,(H3,24,25)(H,26,30)(H,28,31)/t18-,20+/m0/s1

>  <InChIKey>  (122) 
SDEUQAIXWAGFLP-AZUAARDMSA-N

>  <SMILES>  (122) 
[H]/N=C(/c1ccc(cc1)CNC(=O)[C@@H]2CCN2C(=O)[C@@H](C3CCCCC3)NCC(=O)NC)\N

>  <MissingHeavyAtoms>  (122) 
0

>  <Model>  (122) 
1

>  <AltIds>  (122) 


>  <pKI>  (122) 
8.61

>  <ChemblID>  (122) 
-

>  <standardized_canonical_smiles>  (122) 
CNC(=O)CN[C@@H](C(=O)N1CC[C@H]1C(=O)NCc1ccc(C(=N)N)cc1)C1CCCCC1

$$$$
3UTU_1TS_H_901
     RDKit          3D

 47 50  0  0  0  0  0  0  0  0999 V2000
   18.0850  -16.3870   24.9640 S   0  0  0  0  0  0  0  0  0  0  0  0
   20.8370  -12.1460   26.6850 Cl  0  0  0  0  0  0  0  0  0  0  0  0
   19.5510  -15.4720   24.9520 C   0  0  0  0  0  0  0  0  0  0  0  0
   23.9730  -13.3580   24.1640 C   0  0  0  0  0  0  0  0  0  0  0  0
   22.9250  -13.0920   24.9790 O   0  0  0  0  0  0  0  0  0  0  0  0
   21.8130  -13.8370   24.8930 C   0  0  0  0  0  0  0  0  0  0  0  0
   18.4230  -17.3820   24.3800 O   0  0  0  0  0  0  0  0  0  0  0  0
   17.6440  -16.3220   26.0080 O   0  0  0  0  0  0  0  0  0  0  0  0
   20.5770  -15.7130   24.0780 C   0  0  0  0  0  0  0  0  0  0  0  0
   19.6800  -14.3240   25.7610 C   0  0  0  0  0  0  0  0  0  0  0  0
   21.7330  -14.9280   24.0610 C   0  0  0  0  0  0  0  0  0  0  0  0
   20.7550  -13.5930   25.6870 C   0  0  0  0  0  0  0  0  0  0  0  0
   17.6640  -13.9570   22.3680 C   0  0  0  0  0  0  0  0  0  0  0  0
   17.1750  -15.7780   23.8350 N   0  0  0  0  0  0  0  0  0  0  0  0
   16.7870  -13.3640   22.8960 O   0  0  0  0  0  0  0  0  0  0  0  0
   14.7330  -19.3660   22.1860 C   0  0  0  0  0  0  0  0  0  0  0  0
   14.2280  -19.6180   23.4990 C   0  0  0  0  0  0  0  0  0  0  0  0
   13.0220  -20.1390   23.6580 C   0  0  0  0  0  0  0  0  0  0  0  0
   12.5970  -20.3510   24.9050 C   0  0  0  0  0  0  0  0  0  0  0  0
   13.3220  -20.1100   26.0220 C   0  0  0  0  0  0  0  0  0  0  0  0
   14.5730  -19.5710   25.8720 C   0  0  0  0  0  0  0  0  0  0  0  0
   14.9450  -19.4300   24.6230 C   0  0  0  0  0  0  0  0  0  0  0  0
   12.8160  -20.3110   27.1020 C   0  0  0  0  0  0  0  0  0  0  0  0
   12.3340  -20.3620   28.0940 N   0  0  0  0  0  0  0  0  0  0  0  0
   17.6950  -15.5130   22.6230 C   0  0  0  0  0  0  0  0  0  0  0  0
   16.8720  -16.1360   21.3880 C   0  0  0  0  0  0  0  0  0  0  0  0
   16.5250  -17.6600   21.5310 C   0  0  0  0  0  0  0  0  0  0  0  0
   17.3940  -18.3810   21.3740 O   0  0  0  0  0  0  0  0  0  0  0  0
   15.3170  -18.0060   21.9460 N   0  0  0  0  0  0  0  0  0  0  0  0
   18.5770  -13.4810   21.6180 N   0  0  0  0  0  0  0  0  0  0  0  0
   18.4480  -12.1770   21.1290 C   0  0  0  0  0  0  0  0  0  0  0  0
   17.1200  -12.1720   20.2810 C   0  0  0  0  0  0  0  0  0  0  0  0
   16.8440  -12.9880   19.4770 O   0  0  0  0  0  0  0  0  0  0  0  0
   19.5280  -12.0160   20.0730 C   0  0  0  0  0  0  0  0  0  0  0  0
   20.3560  -13.2590   20.0790 C   0  0  0  0  0  0  0  0  0  0  0  0
   19.6190  -14.2220   20.9120 C   0  0  0  0  0  0  0  0  0  0  0  0
   16.3280  -11.0690   20.4540 N   0  0  0  0  0  0  0  0  0  0  0  0
   15.0790  -10.8690   19.7970 C   0  0  0  0  0  0  0  0  0  0  0  0
   14.0190  -10.8830   20.8490 C   0  0  0  0  0  0  0  0  0  0  0  0
   13.4110   -9.7610   21.3260 C   0  0  0  0  0  0  0  0  0  0  0  0
   12.5010   -9.7550   22.2480 C   0  0  0  0  0  0  0  0  0  0  0  0
   12.0730  -10.8450   22.8530 C   0  0  0  0  0  0  0  0  0  0  0  0
   11.0670  -10.8660   23.8680 C   0  0  0  0  0  0  0  0  0  0  0  0
   10.8020   -9.8930   24.4720 N   0  0  0  0  0  0  0  0  0  0  0  0
   10.3980  -11.9280   24.1010 N   0  0  0  0  0  0  0  0  0  0  0  0
   12.6730  -11.9760   22.4630 C   0  0  0  0  0  0  0  0  0  0  0  0
   13.5990  -11.9520   21.4950 C   0  0  0  0  0  0  0  0  0  0  0  0
  3  1  1  0
  7  1  2  0
  8  1  2  0
 14  1  1  0
 12  2  1  0
  9  3  2  0
 10  3  1  0
  5  4  1  0
  6  5  1  0
 11  6  2  0
 12  6  1  0
 11  9  1  0
 12 10  2  0
 15 13  2  0
 25 13  1  0
 30 13  1  0
 25 14  1  0
 17 16  1  0
 29 16  1  0
 18 17  2  0
 22 17  1  0
 19 18  1  0
 20 19  2  0
 21 20  1  0
 23 20  1  0
 22 21  2  0
 24 23  3  0
 26 25  1  0
 27 26  1  0
 28 27  2  0
 29 27  1  0
 31 30  1  0
 36 30  1  0
 32 31  1  0
 34 31  1  0
 33 32  2  0
 37 32  1  0
 35 34  1  0
 36 35  1  0
 38 37  1  0
 39 38  1  0
 40 39  2  0
 47 39  1  0
 41 40  1  0
 42 41  2  0
 43 42  1  0
 46 42  1  0
 44 43  2  0
 45 43  1  0
 47 46  2  0
A    1
S8
A    2
CL
A    3
C35
A    4
C10
A    5
O9
A    6
C5
A    7
O1
A    8
O10
A    9
C7
A   10
C3
A   11
C6
A   12
C4
A   13
C13
A   14
N11
A   15
O14
A   16
C15
A   17
C31
A   18
C32
A   19
C33
A   20
C44
A   21
C8
A   22
C9
A   23
C40
A   24
N63
A   25
C45
A   26
C12
A   27
C46
A   28
O22
A   29
N14
A   30
N15
A   31
C16
A   32
C17
A   33
O18
A   34
C34
A   35
C1
A   36
C2
A   37
N19
A   38
C20
A   39
C21
A   40
C26
A   41
C25
A   42
C24
A   43
C27
A   44
N29
A   45
N28
A   46
C23
A   47
C22
M  END
>  <Id>  (123) 
3UTU_1TS_H_901

>  <ChainId>  (123) 
H

>  <AsymId>  (123) 
D

>  <SeqNum>  (123) 
901

>  <Name>  (123) 
(2S)-N-[(4-carbamimidoylphenyl)methyl]-1-[(2S)-2-[(3-chloro-4-methoxybenzene)sulfonamido]-3-{[(4-cyanophenyl)methyl]carbamoyl}propanoyl]pyrrolidine-2-carboxamide

>  <SystematicName>  (123) 
(2S)-N-[(4-carbamimidoylphenyl)methyl]-1-[(2S)-2-[(3-chloranyl-4-methoxy-phenyl)sulfonylamino]-4-[(4-cyanophenyl)methylamino]-4-oxidanylidene-butanoyl]pyrrolidine-2-carboxamide

>  <Synonyms>  (123) 


>  <Type>  (123) 
peptide-like

>  <Formula>  (123) 
C32 H34 Cl N7 O6 S

>  <ObservedFormula>  (123) 
S C32 Cl N7 O6

>  <MolecularWeight>  (123) 
680.174

>  <ModifiedDate>  (123) 
2012-08-24

>  <Parent>  (123) 


>  <OneLetterCode>  (123) 


>  <SubcomponentList>  (123) 
BSZ AS7 PRO 00S

>  <AmbiguousFlag>  (123) 
N

>  <InsertionCode>  (123) 


>  <InstanceId>  (123) 
3UTU_1TS_H_901

>  <ChemCompId>  (123) 
1TS

>  <PdbId>  (123) 
3UTU

>  <ResidueNumber>  (123) 
901

>  <InChI>  (123) 
InChI=1S/C32H34ClN7O6S/c1-46-28-13-12-24(15-25(28)33)47(44,45)39-26(16-29(41)37-18-21-6-4-20(17-34)5-7-21)32(43)40-14-2-3-27(40)31(42)38-19-22-8-10-23(11-9-22)30(35)36/h4-13,15,26-27,39H,2-3,14,16,18-19H2,1H3,(H3,35,36)(H,37,41)(H,38,42)/t26-,27-/m0/s1

>  <InChIKey>  (123) 
YNEVNNWCKYNFGX-SVBPBHIXSA-N

>  <SMILES>  (123) 
[H]/N=C(/c1ccc(cc1)CNC(=O)[C@@H]2CCCN2C(=O)[C@H](CC(=O)NCc3ccc(cc3)C#N)NS(=O)(=O)c4ccc(c(c4)Cl)OC)\N

>  <MissingHeavyAtoms>  (123) 
0

>  <Model>  (123) 
1

>  <AltIds>  (123) 


>  <pKI>  (123) 
10.92

>  <ChemblID>  (123) 
-

>  <standardized_canonical_smiles>  (123) 
COc1ccc(S(=O)(=O)N[C@@H](CC(=O)NCc2ccc(C#N)cc2)C(=O)N2CCC[C@H]2C(=O)NCc2ccc(C(=N)N)cc2)cc1Cl

$$$$
1D9I_00P_A_380
     RDKit          3D

 33 36  0  0  0  0  0  0  0  0999 V2000
   14.6340  -11.3620   20.5950 C   0  0  0  0  0  0  0  0  0  0  0  0
   15.5640  -12.1770   21.3760 N   0  0  0  0  0  0  0  0  0  0  0  0
   13.1470  -11.2940   21.1010 C   0  0  0  0  0  0  0  0  0  0  0  0
   10.3290  -12.8470   24.1710 N   0  0  0  0  0  0  0  0  0  0  0  0
   13.0620  -10.6940   22.5400 C   0  0  0  0  0  0  0  0  0  0  0  0
   11.6930  -10.9390   23.2670 C   0  0  0  0  0  0  0  0  0  0  0  0
   11.3930  -12.4610   23.2340 C   0  0  0  0  0  0  0  0  0  0  0  0
   11.1010  -12.8180   21.7700 C   0  0  0  0  0  0  0  0  0  0  0  0
   12.4150  -12.6670   20.9440 C   0  0  0  0  0  0  0  0  0  0  0  0
   17.9450  -15.9540   23.4870 N   0  0  0  0  0  0  0  0  0  0  0  0
   19.0400  -16.1960   22.6510 C   0  0  0  0  0  0  0  0  0  0  0  0
   19.7450  -17.2000   22.5880 O   0  0  0  0  0  0  0  0  0  0  0  0
   19.2010  -15.0530   21.8590 N   0  0  0  0  0  0  0  0  0  0  0  0
   18.2070  -14.1460   22.2110 N   0  0  0  0  0  0  0  0  0  0  0  0
   17.4300  -14.6990   23.2110 C   0  0  0  0  0  0  0  0  0  0  0  0
   16.4570  -14.1480   23.6930 O   0  0  0  0  0  0  0  0  0  0  0  0
   20.4440  -14.5980   21.2530 C   0  0  0  0  0  0  0  0  0  0  0  0
   20.1380  -13.4830   20.2800 C   0  0  0  0  0  0  0  0  0  0  0  0
   19.0090  -12.7640   20.4130 C   0  0  0  0  0  0  0  0  0  0  0  0
   17.9940  -12.8890   21.5140 C   0  0  0  0  0  0  0  0  0  0  0  0
   16.5950  -12.9620   20.8130 C   0  0  0  0  0  0  0  0  0  0  0  0
   16.3630  -13.7750   19.9310 O   0  0  0  0  0  0  0  0  0  0  0  0
   17.3710  -16.9340   24.3950 C   0  0  0  0  0  0  0  0  0  0  0  0
   16.9020  -16.4020   25.7390 C   0  0  0  0  0  0  0  0  0  0  0  0
   18.2030  -17.0280   26.7510 S   0  0  0  0  0  0  0  0  0  0  0  0
   17.9480  -16.9120   28.1580 O   0  0  0  0  0  0  0  0  0  0  0  0
   18.5360  -18.3710   26.2200 O   0  0  0  0  0  0  0  0  0  0  0  0
   19.7060  -16.1130   26.4360 C   0  0  0  0  0  0  0  0  0  0  0  0
   20.2580  -15.3020   27.4200 C   0  0  0  0  0  0  0  0  0  0  0  0
   21.4520  -14.6360   27.1510 C   0  0  0  0  0  0  0  0  0  0  0  0
   22.0830  -14.7810   25.9190 C   0  0  0  0  0  0  0  0  0  0  0  0
   21.5350  -15.5990   24.9340 C   0  0  0  0  0  0  0  0  0  0  0  0
   20.3480  -16.2710   25.2010 C   0  0  0  0  0  0  0  0  0  0  0  0
  2  1  1  0
  3  1  1  0
 21  2  1  0
  5  3  1  0
  9  3  1  0
  7  4  1  0
  6  5  1  0
  7  6  1  0
  8  7  1  0
  9  8  1  0
 11 10  1  0
 15 10  1  0
 23 10  1  0
 12 11  2  0
 13 11  1  0
 14 13  1  0
 17 13  1  0
 15 14  1  0
 20 14  1  0
 16 15  2  0
 18 17  1  0
 19 18  2  0
 20 19  1  0
 21 20  1  0
 22 21  2  0
 24 23  1  0
 25 24  1  0
 26 25  2  0
 27 25  2  0
 28 25  1  0
 29 28  2  0
 33 28  1  0
 30 29  1  0
 31 30  2  0
 32 31  1  0
 33 32  2  0
A    1
C1
A    2
N1
A    3
C2
A    4
N2
A    5
C3
A    6
C4
A    7
C5
A    8
C6
A    9
C7
A   10
N07
A   11
C08
A   12
O09
A   13
N10
A   14
N11
A   15
C12
A   16
O13
A   17
C14
A   18
C15
A   19
C16
A   20
C17
A   21
C18
A   22
O19
A   23
C31
A   24
C32
A   25
S33
A   26
O34
A   27
O35
A   28
C36
A   29
C37
A   30
C38
A   31
C39
A   32
C40
A   33
C41
M  END
>  <Id>  (124) 
1D9I_00P_A_380

>  <ChainId>  (124) 
A

>  <AsymId>  (124) 
E

>  <SeqNum>  (124) 
380

>  <Name>  (124) 
(5S)-N-[(trans-4-aminocyclohexyl)methyl]-1,3-dioxo-2-[2-(phenylsulfonyl)ethyl]-2,3,5,8-tetrahydro-1H-[1,2,4]triazolo[1,2-a]pyridazine-5-carboxamide

>  <SystematicName>  (124) 
(5S)-N-[(4-azanylcyclohexyl)methyl]-1,3-dioxo-2-[2-(phenylsulfonyl)ethyl]-5,8-dihydro-[1,2,4]triazolo[1,2-a]pyridazine-5-carboxamide

>  <Synonyms>  (124) 


>  <Type>  (124) 
peptide-like

>  <Formula>  (124) 
C22 H29 N5 O5 S

>  <ObservedFormula>  (124) 
C22 S N5 O5

>  <MolecularWeight>  (124) 
475.561

>  <ModifiedDate>  (124) 
2011-07-13

>  <Parent>  (124) 


>  <OneLetterCode>  (124) 


>  <SubcomponentList>  (124) 


>  <AmbiguousFlag>  (124) 
N

>  <InsertionCode>  (124) 


>  <InstanceId>  (124) 
1D9I_00P_A_380

>  <ChemCompId>  (124) 
00P

>  <PdbId>  (124) 
1D9I

>  <ResidueNumber>  (124) 
380

>  <InChI>  (124) 
InChI=1S/C22H29N5O5S/c23-17-10-8-16(9-11-17)15-24-20(28)19-7-4-12-26-21(29)25(22(30)27(19)26)13-14-33(31,32)18-5-2-1-3-6-18/h1-7,16-17,19H,8-15,23H2,(H,24,28)/t16-,17-,19-/m0/s1

>  <InChIKey>  (124) 
PTMIAKQUJFKTNB-LNLFQRSKSA-N

>  <SMILES>  (124) 
c1ccc(cc1)S(=O)(=O)CCN2C(=O)N3CC=C[C@H](N3C2=O)C(=O)NCC4CCC(CC4)N

>  <MissingHeavyAtoms>  (124) 
0

>  <Model>  (124) 
1

>  <AltIds>  (124) 


>  <pKI>  (124) 
9.11

>  <ChemblID>  (124) 
-

>  <standardized_canonical_smiles>  (124) 
N[C@H]1CC[C@H](CNC(=O)[C@@H]2C=CCn3c(=O)n(CCS(=O)(=O)c4ccccc4)c(=O)n32)CC1

$$$$
1SB1_165_H_1001
     RDKit          3D

 39 43  0  0  0  0  0  0  0  0999 V2000
   12.2270  -18.2760   13.0680 C   0  0  0  0  0  0  0  0  0  0  0  0
   13.0050  -16.7040   13.7760 S   0  0  0  0  0  0  0  0  0  0  0  0
   13.1590  -19.2610   12.3180 C   0  0  0  0  0  0  0  0  0  0  0  0
   14.2450  -20.0120   12.9740 C   0  0  0  0  0  0  0  0  0  0  0  0
   15.1210  -20.9160   12.1410 C   0  0  0  0  0  0  0  0  0  0  0  0
   14.8920  -21.0430   10.6850 C   0  0  0  0  0  0  0  0  0  0  0  0
   13.7790  -20.2810   10.0350 C   0  0  0  0  0  0  0  0  0  0  0  0
   12.9240  -19.3990   10.8450 C   0  0  0  0  0  0  0  0  0  0  0  0
   13.7590  -16.6480   12.5800 O   0  0  0  0  0  0  0  0  0  0  0  0
   13.5390  -17.4550   14.8680 O   0  0  0  0  0  0  0  0  0  0  0  0
   11.3260  -16.4730   13.9990 N   0  0  0  0  0  0  0  0  0  0  0  0
   10.3460  -15.5480   13.1120 C   0  0  0  0  0  0  0  0  0  0  0  0
   10.7970  -14.1300   13.6970 C   0  0  0  0  0  0  0  0  0  0  0  0
   11.5270  -13.3320   13.0290 O   0  0  0  0  0  0  0  0  0  0  0  0
   10.6100  -15.6370   11.5500 C   0  0  0  0  0  0  0  0  0  0  0  0
    9.1870  -14.7650   11.1570 C   0  0  0  0  0  0  0  0  0  0  0  0
    7.7460  -15.5260   11.5660 C   0  0  0  0  0  0  0  0  0  0  0  0
    9.0690  -14.3320    9.6570 C   0  0  0  0  0  0  0  0  0  0  0  0
    6.4220  -14.6620   11.2240 C   0  0  0  0  0  0  0  0  0  0  0  0
    7.8460  -13.3470    9.3730 C   0  0  0  0  0  0  0  0  0  0  0  0
    6.4480  -14.0050    9.7640 C   0  0  0  0  0  0  0  0  0  0  0  0
   10.2600  -13.7020   15.0490 N   0  0  0  0  0  0  0  0  0  0  0  0
   10.5710  -12.3900   15.6190 C   0  0  0  0  0  0  0  0  0  0  0  0
   11.9710  -12.1810   16.1990 C   0  0  0  0  0  0  0  0  0  0  0  0
   12.0720  -11.4380   17.1950 O   0  0  0  0  0  0  0  0  0  0  0  0
    9.5900  -12.6210   16.8250 C   0  0  0  0  0  0  0  0  0  0  0  0
    8.4750  -13.4070   16.2010 C   0  0  0  0  0  0  0  0  0  0  0  0
    9.3230  -14.5840   15.7800 C   0  0  0  0  0  0  0  0  0  0  0  0
   13.0980  -12.8640   15.5190 N   0  0  0  0  0  0  0  0  0  0  0  0
   14.4890  -12.6600   16.0300 C   0  0  0  0  0  0  0  0  0  0  0  0
   14.9880  -11.3300   15.3740 C   0  0  0  0  0  0  0  0  0  0  0  0
   15.8590  -11.4800   14.1330 C   0  0  0  0  0  0  0  0  0  0  0  0
   16.2950  -10.0690   13.2480 S   0  0  0  0  0  0  0  0  0  0  0  0
   17.1920  -11.1080   12.0590 C   0  0  0  0  0  0  0  0  0  0  0  0
   17.8310  -10.5530   10.9810 N   0  0  0  0  0  0  0  0  0  0  0  0
   17.1310  -12.3740   12.3690 N   0  0  0  0  0  0  0  0  0  0  0  0
   16.3400  -12.6680   13.5960 C   0  0  0  0  0  0  0  0  0  0  0  0
   16.0970  -14.0550   14.1900 C   0  0  0  0  0  0  0  0  0  0  0  0
   15.3730  -14.0020   15.6670 C   0  0  0  0  0  0  0  0  0  0  0  0
  2  1  1  0
  3  1  1  0
  9  2  2  0
 10  2  2  0
 11  2  1  0
  4  3  2  0
  8  3  1  0
  5  4  1  0
  6  5  2  0
  7  6  1  0
  8  7  2  0
 12 11  1  0
 13 12  1  0
 15 12  1  0
 14 13  2  0
 22 13  1  0
 16 15  1  0
 17 16  1  0
 18 16  1  0
 19 17  1  0
 20 18  1  0
 21 19  1  0
 21 20  1  0
 23 22  1  0
 28 22  1  0
 24 23  1  0
 26 23  1  0
 25 24  2  0
 29 24  1  0
 27 26  1  0
 28 27  1  0
 30 29  1  0
 31 30  2  0
 39 30  1  0
 32 31  1  0
 33 32  1  0
 37 32  2  0
 34 33  1  0
 35 34  1  0
 36 34  2  0
 37 36  1  0
 38 37  1  0
 39 38  2  0
A    1
C7
A    2
S8
A    3
C5
A    4
C4
A    5
C3
A    6
C2
A    7
C1
A    8
C6
A    9
O36
A   10
O37
A   11
N9
A   12
C10
A   13
C18
A   14
O38
A   15
C11
A   16
C12
A   17
C13
A   18
C17
A   19
C14
A   20
C16
A   21
C15
A   22
N19
A   23
C23
A   24
C24
A   25
O39
A   26
C22
A   27
C21
A   28
C20
A   29
N25
A   30
C26
A   31
C31
A   32
C30
A   33
S34
A   34
C33
A   35
N35
A   36
N32
A   37
C29
A   38
C28
A   39
C27
M  END
>  <Id>  (125) 
1SB1_165_H_1001

>  <ChainId>  (125) 
H

>  <AsymId>  (125) 
F

>  <SeqNum>  (125) 
1001

>  <Name>  (125) 
N-(BENZYLSULFONYL)-3-CYCLOHEXYLALANYL-N-(2-AMINO-1,3-BENZOTHIAZOL-6-YL)PROLINAMIDE

>  <SystematicName>  (125) 
(2S)-N-(2-azanyl-1,3-benzothiazol-6-yl)-1-[(2R)-3-cyclohexyl-2-(phenylmethylsulfonylamino)propanoyl]pyrrolidine-2-carboxamide

>  <Synonyms>  (125) 


>  <Type>  (125) 
peptide-like

>  <Formula>  (125) 
C28 H35 N5 O4 S2

>  <ObservedFormula>  (125) 
C28 S2 N5 O4

>  <MolecularWeight>  (125) 
569.739

>  <ModifiedDate>  (125) 
2011-06-04

>  <Parent>  (125) 


>  <OneLetterCode>  (125) 


>  <SubcomponentList>  (125) 
PMS DPN PRO 01U

>  <AmbiguousFlag>  (125) 
N

>  <InsertionCode>  (125) 


>  <InstanceId>  (125) 
1SB1_165_H_1001

>  <ChemCompId>  (125) 
165

>  <PdbId>  (125) 
1SB1

>  <ResidueNumber>  (125) 
1001

>  <InChI>  (125) 
InChI=1S/C28H35N5O4S2/c29-28-31-22-14-13-21(17-25(22)38-28)30-26(34)24-12-7-15-33(24)27(35)23(16-19-8-3-1-4-9-19)32-39(36,37)18-20-10-5-2-6-11-20/h2,5-6,10-11,13-14,17,19,23-24,32H,1,3-4,7-9,12,15-16,18H2,(H2,29,31)(H,30,34)/t23-,24+/m1/s1

>  <InChIKey>  (125) 
HDSAIJKTEVRQHF-RPWUZVMVSA-N

>  <SMILES>  (125) 
c1ccc(cc1)CS(=O)(=O)N[C@H](CC2CCCCC2)C(=O)N3CCC[C@H]3C(=O)Nc4ccc5c(c4)sc(n5)N

>  <MissingHeavyAtoms>  (125) 
0

>  <Model>  (125) 
1

>  <AltIds>  (125) 


>  <pKI>  (125) 
6.89

>  <ChemblID>  (125) 
-

>  <standardized_canonical_smiles>  (125) 
Nc1nc2ccc(NC(=O)[C@@H]3CCCN3C(=O)[C@@H](CC3CCCCC3)NS(=O)(=O)Cc3ccccc3)cc2s1

$$$$
1D6W_00R_A_380
     RDKit          3D

 37 41  0  0  0  0  0  0  0  0999 V2000
   13.5570  -11.0860   19.9620 C   0  0  0  0  0  0  0  0  0  0  0  0
   14.4460  -12.4670   20.0420 C   0  0  0  0  0  0  0  0  0  0  0  0
   13.4950  -13.6750   20.3320 C   0  0  0  0  0  0  0  0  0  0  0  0
   12.3520  -13.3920   21.4960 C   0  0  0  0  0  0  0  0  0  0  0  0
   12.8360  -12.0680   22.3430 C   0  0  0  0  0  0  0  0  0  0  0  0
   12.9450  -10.7710   21.4690 C   0  0  0  0  0  0  0  0  0  0  0  0
   18.0250  -16.1340   23.1370 N   0  0  0  0  0  0  0  0  0  0  0  0
   19.1440  -16.3230   22.3250 C   0  0  0  0  0  0  0  0  0  0  0  0
   19.8090  -17.3580   22.1880 O   0  0  0  0  0  0  0  0  0  0  0  0
   19.3820  -15.1200   21.6610 N   0  0  0  0  0  0  0  0  0  0  0  0
   18.3990  -14.2200   22.0660 N   0  0  0  0  0  0  0  0  0  0  0  0
   17.5690  -14.8270   22.9990 C   0  0  0  0  0  0  0  0  0  0  0  0
   16.5890  -14.3440   23.5610 O   0  0  0  0  0  0  0  0  0  0  0  0
   20.6360  -14.6960   21.0740 C   0  0  0  0  0  0  0  0  0  0  0  0
   20.5340  -13.3510   20.3930 C   0  0  0  0  0  0  0  0  0  0  0  0
   19.4230  -12.5950   20.5510 C   0  0  0  0  0  0  0  0  0  0  0  0
   18.2030  -12.9610   21.3610 C   0  0  0  0  0  0  0  0  0  0  0  0
   16.9240  -13.1160   20.5000 C   0  0  0  0  0  0  0  0  0  0  0  0
   16.9030  -13.8470   19.2370 O   0  0  0  0  0  0  0  0  0  0  0  0
   15.5870  -12.3820   20.9900 N   0  0  0  0  0  0  0  0  0  0  0  0
   12.0340  -11.9000   23.2690 C   0  0  0  0  0  0  0  0  0  0  0  0
   11.6470  -12.8270   24.2480 N   0  0  0  0  0  0  0  0  0  0  0  0
   10.7930  -12.2360   25.1330 C   0  0  0  0  0  0  0  0  0  0  0  0
   10.6170  -10.9750   24.7980 N   0  0  0  0  0  0  0  0  0  0  0  0
   11.4440  -10.7640   23.5830 C   0  0  0  0  0  0  0  0  0  0  0  0
   10.2640  -12.9570   26.1260 N   0  0  0  0  0  0  0  0  0  0  0  0
   17.3700  -17.1500   23.9450 C   0  0  0  0  0  0  0  0  0  0  0  0
   18.3370  -17.9690   24.7590 C   0  0  0  0  0  0  0  0  0  0  0  0
   18.8410  -17.1800   26.2810 S   0  0  0  0  0  0  0  0  0  0  0  0
   17.6720  -16.3950   26.7250 O   0  0  0  0  0  0  0  0  0  0  0  0
   19.2610  -18.2340   27.1910 O   0  0  0  0  0  0  0  0  0  0  0  0
   20.1650  -16.0750   25.8620 C   0  0  0  0  0  0  0  0  0  0  0  0
   20.1810  -14.7560   26.3300 C   0  0  0  0  0  0  0  0  0  0  0  0
   21.2000  -13.8930   25.9430 C   0  0  0  0  0  0  0  0  0  0  0  0
   22.2100  -14.3250   25.1010 C   0  0  0  0  0  0  0  0  0  0  0  0
   22.2260  -15.6300   24.6340 C   0  0  0  0  0  0  0  0  0  0  0  0
   21.2070  -16.4980   25.0150 C   0  0  0  0  0  0  0  0  0  0  0  0
  2  1  1  0
  6  1  1  0
  3  2  1  0
 20  2  1  0
  4  3  1  0
  5  4  1  0
  6  5  1  0
 21  5  1  0
  8  7  1  0
 12  7  1  0
 27  7  1  0
  9  8  2  0
 10  8  1  0
 11 10  1  0
 14 10  1  0
 12 11  1  0
 17 11  1  0
 13 12  2  0
 15 14  1  0
 16 15  2  0
 17 16  1  0
 18 17  1  0
 19 18  2  0
 20 18  1  0
 22 21  1  0
 25 21  2  0
 23 22  1  0
 24 23  2  0
 26 23  1  0
 25 24  1  0
 28 27  1  0
 29 28  1  0
 30 29  2  0
 31 29  2  0
 32 29  1  0
 33 32  2  0
 37 32  1  0
 34 33  1  0
 35 34  2  0
 36 35  1  0
 37 36  2  0
A    1
C01
A    2
C02
A    3
C03
A    4
C04
A    5
C05
A    6
C06
A    7
N07
A    8
C08
A    9
O09
A   10
N10
A   11
N11
A   12
C12
A   13
O13
A   14
C14
A   15
C15
A   16
C16
A   17
C17
A   18
C18
A   19
O19
A   20
N20
A   21
C22
A   22
N23
A   23
C24
A   24
N25
A   25
C26
A   26
N27
A   27
C31
A   28
C32
A   29
S33
A   30
O34
A   31
O35
A   32
C36
A   33
C37
A   34
C38
A   35
C39
A   36
C40
A   37
C41
M  END
>  <Id>  (126) 
1D6W_00R_A_380

>  <ChainId>  (126) 
A

>  <AsymId>  (126) 
E

>  <SeqNum>  (126) 
380

>  <Name>  (126) 
(5S)-N-[trans-4-(2-amino-1H-imidazol-5-yl)cyclohexyl]-1,3-dioxo-2-[2-(phenylsulfonyl)ethyl]-2,3,5,8-tetrahydro-1H-[1,2,4]triazolo[1,2-a]pyridazine-5-carboxamide

>  <SystematicName>  (126) 
(5S)-N-[4-(2-azanyl-1H-imidazol-5-yl)cyclohexyl]-1,3-dioxo-2-[2-(phenylsulfonyl)ethyl]-5,8-dihydro-[1,2,4]triazolo[1,2-a]pyridazine-5-carboxamide

>  <Synonyms>  (126) 


>  <Type>  (126) 
peptide-like

>  <Formula>  (126) 
C24 H29 N7 O5 S

>  <ObservedFormula>  (126) 
C24 S N7 O5

>  <MolecularWeight>  (126) 
527.596

>  <ModifiedDate>  (126) 
2011-07-13

>  <Parent>  (126) 


>  <OneLetterCode>  (126) 


>  <SubcomponentList>  (126) 


>  <AmbiguousFlag>  (126) 
N

>  <InsertionCode>  (126) 


>  <InstanceId>  (126) 
1D6W_00R_A_380

>  <ChemCompId>  (126) 
00R

>  <PdbId>  (126) 
1D6W

>  <ResidueNumber>  (126) 
380

>  <InChI>  (126) 
InChI=1S/C24H29N7O5S/c25-22-26-15-19(28-22)16-8-10-17(11-9-16)27-21(32)20-7-4-12-30-23(33)29(24(34)31(20)30)13-14-37(35,36)18-5-2-1-3-6-18/h1-7,15-17,20H,8-14H2,(H,27,32)(H3,25,26,28)/t16-,17-,20-/m0/s1

>  <InChIKey>  (126) 
RRUPLXTVXFHADQ-ZWOKBUDYSA-N

>  <SMILES>  (126) 
c1ccc(cc1)S(=O)(=O)CCN2C(=O)N3CC=C[C@H](N3C2=O)C(=O)NC4CCC(CC4)c5cnc([nH]5)N

>  <MissingHeavyAtoms>  (126) 
0

>  <Model>  (126) 
1

>  <AltIds>  (126) 


>  <pKI>  (126) 
5.96

>  <ChemblID>  (126) 
-

>  <standardized_canonical_smiles>  (126) 
Nc1ncc([C@H]2CC[C@H](NC(=O)[C@@H]3C=CCn4c(=O)n(CCS(=O)(=O)c5ccccc5)c(=O)n43)CC2)[nH]1

$$$$
3SI3_B03_H_5
     RDKit          3D

 26 28  0  0  0  0  0  0  0  0999 V2000
   16.6920  -15.3670   23.3600 N   0  0  0  0  0  0  0  0  0  0  0  0
   17.9710  -14.6840   23.3400 C   0  0  0  0  0  0  0  0  0  0  0  0
   17.7590  -13.3150   22.7490 C   0  0  0  0  0  0  0  0  0  0  0  0
   16.8250  -12.6150   23.1350 O   0  0  0  0  0  0  0  0  0  0  0  0
   18.4740  -14.5870   24.7850 C   0  0  0  0  0  0  0  0  0  0  0  0
   19.8740  -14.0180   24.8370 C   0  0  0  0  0  0  0  0  0  0  0  0
   20.9500  -14.6840   24.2540 C   0  0  0  0  0  0  0  0  0  0  0  0
   20.0850  -12.8070   25.4680 C   0  0  0  0  0  0  0  0  0  0  0  0
   22.2250  -14.1270   24.3100 C   0  0  0  0  0  0  0  0  0  0  0  0
   21.3540  -12.2480   25.5180 C   0  0  0  0  0  0  0  0  0  0  0  0
   22.4350  -12.9120   24.9400 C   0  0  0  0  0  0  0  0  0  0  0  0
   18.6040  -12.9030   21.8160 N   0  0  0  0  0  0  0  0  0  0  0  0
   18.4090  -11.5830   21.2360 C   0  0  0  0  0  0  0  0  0  0  0  0
   17.0650  -11.4740   20.5700 C   0  0  0  0  0  0  0  0  0  0  0  0
   16.7190  -12.3280   19.7680 O   0  0  0  0  0  0  0  0  0  0  0  0
   19.5130  -11.4360   20.1920 C   0  0  0  0  0  0  0  0  0  0  0  0
   20.5110  -12.5460   20.4710 C   0  0  0  0  0  0  0  0  0  0  0  0
   19.7600  -13.6160   21.2560 C   0  0  0  0  0  0  0  0  0  0  0  0
   16.2730  -10.4460   20.8920 N   0  0  0  0  0  0  0  0  0  0  0  0
   14.9490  -10.2000   20.3250 C   0  0  0  0  0  0  0  0  0  0  0  0
   13.8650  -10.0880   21.3770 C   0  0  0  0  0  0  0  0  0  0  0  0
   13.8200   -9.0020   22.2450 C   0  0  0  0  0  0  0  0  0  0  0  0
   12.8120   -8.9290   23.1990 C   0  0  0  0  0  0  0  0  0  0  0  0
   11.8640   -9.9390   23.2620 C   0  0  0  0  0  0  0  0  0  0  0  0
   11.9440  -11.0030   22.3720 C   0  0  0  0  0  0  0  0  0  0  0  0
   12.9240  -11.0540   21.4610 N   0  0  0  0  0  0  0  0  0  0  0  0
  2  1  1  0
  3  2  1  0
  5  2  1  0
  4  3  2  0
 12  3  1  0
  6  5  1  0
  7  6  2  0
  8  6  1  0
  9  7  1  0
 10  8  2  0
 11  9  2  0
 11 10  1  0
 13 12  1  0
 18 12  1  0
 14 13  1  0
 16 13  1  0
 15 14  2  0
 19 14  1  0
 17 16  1  0
 18 17  1  0
 20 19  1  0
 21 20  1  0
 22 21  2  0
 26 21  1  0
 23 22  1  0
 24 23  2  0
 25 24  1  0
 26 25  2  0
A    1
N10
A    2
C8
A    3
C9
A    4
O12
A    5
C7
A    6
C4
A    7
C3
A    8
C5
A    9
C2
A   10
C6
A   11
C1
A   12
N11
A   13
C13
A   14
C17
A   15
O28
A   16
C15
A   17
C16
A   18
C14
A   19
N18
A   20
C19
A   21
C20
A   22
C22
A   23
C23
A   24
C24
A   25
C25
A   26
N21
M  END
>  <Id>  (127) 
3SI3_B03_H_5

>  <ChainId>  (127) 
H

>  <AsymId>  (127) 
I

>  <SeqNum>  (127) 
5

>  <Name>  (127) 
D-phenylalanyl-N-(pyridin-2-ylmethyl)-L-prolinamide

>  <SystematicName>  (127) 
(2S)-1-[(2R)-2-azanyl-3-phenyl-propanoyl]-N-(pyridin-2-ylmethyl)pyrrolidine-2-carboxamide

>  <Synonyms>  (127) 


>  <Type>  (127) 
peptide-like

>  <Formula>  (127) 
C20 H24 N4 O2

>  <ObservedFormula>  (127) 
C20 N4 O2

>  <MolecularWeight>  (127) 
352.43

>  <ModifiedDate>  (127) 
2012-06-15

>  <Parent>  (127) 


>  <OneLetterCode>  (127) 


>  <SubcomponentList>  (127) 
DPN PRO APY

>  <AmbiguousFlag>  (127) 
N

>  <InsertionCode>  (127) 


>  <InstanceId>  (127) 
3SI3_B03_H_5

>  <ChemCompId>  (127) 
B03

>  <PdbId>  (127) 
3SI3

>  <ResidueNumber>  (127) 
5

>  <InChI>  (127) 
InChI=1S/C20H24N4O2/c21-17(13-15-7-2-1-3-8-15)20(26)24-12-6-10-18(24)19(25)23-14-16-9-4-5-11-22-16/h1-5,7-9,11,17-18H,6,10,12-14,21H2,(H,23,25)/t17-,18+/m1/s1

>  <InChIKey>  (127) 
BUZZZPBDSHVEFR-MSOLQXFVSA-N

>  <SMILES>  (127) 
c1ccc(cc1)C[C@H](C(=O)N2CCC[C@H]2C(=O)NCc3ccccn3)N

>  <MissingHeavyAtoms>  (127) 
0

>  <Model>  (127) 
1

>  <AltIds>  (127) 


>  <pKI>  (127) 
4.16

>  <ChemblID>  (127) 
-

>  <standardized_canonical_smiles>  (127) 
N[C@H](Cc1ccccc1)C(=O)N1CCC[C@H]1C(=O)NCc1ccccn1

$$$$
3SHC_B01_H_3
     RDKit          3D

 27 29  0  0  0  0  0  0  0  0999 V2000
   16.4670  -16.0470   23.1480 N   0  0  0  0  0  0  0  0  0  0  0  0
   17.6300  -15.1850   23.2700 C   0  0  0  0  0  0  0  0  0  0  0  0
   17.2830  -13.8210   22.7350 C   0  0  0  0  0  0  0  0  0  0  0  0
   16.2960  -13.2280   23.1540 O   0  0  0  0  0  0  0  0  0  0  0  0
   18.0200  -15.0840   24.7410 C   0  0  0  0  0  0  0  0  0  0  0  0
   19.4380  -14.5680   24.8540 C   0  0  0  0  0  0  0  0  0  0  0  0
   20.4480  -15.1110   24.0600 C   0  0  0  0  0  0  0  0  0  0  0  0
   19.7360  -13.5580   25.7650 C   0  0  0  0  0  0  0  0  0  0  0  0
   21.7540  -14.6370   24.1720 C   0  0  0  0  0  0  0  0  0  0  0  0
   21.0380  -13.0840   25.8760 C   0  0  0  0  0  0  0  0  0  0  0  0
   22.0460  -13.6240   25.0770 C   0  0  0  0  0  0  0  0  0  0  0  0
   18.0770  -13.3080   21.7950 N   0  0  0  0  0  0  0  0  0  0  0  0
   17.7740  -11.9880   21.2330 C   0  0  0  0  0  0  0  0  0  0  0  0
   16.3830  -11.9630   20.6550 C   0  0  0  0  0  0  0  0  0  0  0  0
   15.9960  -12.9110   19.9890 O   0  0  0  0  0  0  0  0  0  0  0  0
   18.8090  -11.8000   20.1290 C   0  0  0  0  0  0  0  0  0  0  0  0
   19.5060  -13.1370   19.9370 C   0  0  0  0  0  0  0  0  0  0  0  0
   19.2710  -13.9260   21.2160 C   0  0  0  0  0  0  0  0  0  0  0  0
   14.2330  -10.7040   20.4400 C   0  0  0  0  0  0  0  0  0  0  0  0
   13.2640  -10.6040   21.6020 C   0  0  0  0  0  0  0  0  0  0  0  0
   11.5220  -11.5700   22.8360 C   0  0  0  0  0  0  0  0  0  0  0  0
   11.4780  -10.4810   23.7070 C   0  0  0  0  0  0  0  0  0  0  0  0
   12.3620   -9.4240   23.5200 C   0  0  0  0  0  0  0  0  0  0  0  0
   13.2590   -9.4960   22.4520 C   0  0  0  0  0  0  0  0  0  0  0  0
   15.6070  -10.9010   20.9080 N   0  0  0  0  0  0  0  0  0  0  0  0
   12.3970  -11.6160   21.8180 N   0  0  0  0  0  0  0  0  0  0  0  0
   12.3300   -7.9990   24.6400 Cl  0  0  0  0  0  0  0  0  0  0  0  0
  2  1  1  0
  3  2  1  0
  5  2  1  0
  4  3  2  0
 12  3  1  0
  6  5  1  0
  7  6  2  0
  8  6  1  0
  9  7  1  0
 10  8  2  0
 11  9  2  0
 11 10  1  0
 13 12  1  0
 18 12  1  0
 14 13  1  0
 16 13  1  0
 15 14  2  0
 25 14  1  0
 17 16  1  0
 18 17  1  0
 20 19  1  0
 25 19  1  0
 24 20  1  0
 26 20  2  0
 22 21  2  0
 26 21  1  0
 23 22  1  0
 24 23  2  0
 27 23  1  0
A    1
N21
A    2
C8
A    3
C9
A    4
O25
A    5
C7
A    6
C6
A    7
C1
A    8
C5
A    9
C2
A   10
C4
A   11
C3
A   12
N22
A   13
C10
A   14
C11
A   15
O26
A   16
C14
A   17
C15
A   18
C16
A   19
C12
A   20
C13
A   21
C17
A   22
C18
A   23
C19
A   24
C20
A   25
N23
A   26
N24
A   27
CL27
M  END
>  <Id>  (128) 
3SHC_B01_H_3

>  <ChainId>  (128) 
H

>  <AsymId>  (128) 
G

>  <SeqNum>  (128) 
3

>  <Name>  (128) 
D-phenylalanyl-N-[(4-chloropyridin-2-yl)methyl]-L-prolinamide

>  <SystematicName>  (128) 
(2S)-1-[(2R)-2-azanyl-3-phenyl-propanoyl]-N-[(4-chloranylpyridin-2-yl)methyl]pyrrolidine-2-carboxamide

>  <Synonyms>  (128) 


>  <Type>  (128) 
peptide-like

>  <Formula>  (128) 
C20 H23 Cl N4 O2

>  <ObservedFormula>  (128) 
C20 Cl N4 O2

>  <MolecularWeight>  (128) 
386.875

>  <ModifiedDate>  (128) 
2012-06-15

>  <Parent>  (128) 


>  <OneLetterCode>  (128) 


>  <SubcomponentList>  (128) 
DPN PRO NNY

>  <AmbiguousFlag>  (128) 
N

>  <InsertionCode>  (128) 


>  <InstanceId>  (128) 
3SHC_B01_H_3

>  <ChemCompId>  (128) 
B01

>  <PdbId>  (128) 
3SHC

>  <ResidueNumber>  (128) 
3

>  <InChI>  (128) 
InChI=1S/C20H23ClN4O2/c21-15-8-9-23-16(12-15)13-24-19(26)18-7-4-10-25(18)20(27)17(22)11-14-5-2-1-3-6-14/h1-3,5-6,8-9,12,17-18H,4,7,10-11,13,22H2,(H,24,26)/t17-,18+/m1/s1

>  <InChIKey>  (128) 
HLPBLACQLHRYRL-MSOLQXFVSA-N

>  <SMILES>  (128) 
c1ccc(cc1)C[C@H](C(=O)N2CCC[C@H]2C(=O)NCc3cc(ccn3)Cl)N

>  <MissingHeavyAtoms>  (128) 
0

>  <Model>  (128) 
1

>  <AltIds>  (128) 


>  <pKI>  (128) 
5.72

>  <ChemblID>  (128) 
-

>  <standardized_canonical_smiles>  (128) 
N[C@H](Cc1ccccc1)C(=O)N1CCC[C@H]1C(=O)NCc1cc(Cl)ccn1

$$$$
3P17_99P_H_1001
     RDKit          3D

 26 28  0  0  0  0  0  0  0  0999 V2000
   16.3850  -15.3010   23.0820 N   0  0  0  0  0  0  0  0  0  0  0  0
   17.6990  -14.5780   23.1540 C   0  0  0  0  0  0  0  0  0  0  0  0
   17.4730  -13.1790   22.5570 C   0  0  0  0  0  0  0  0  0  0  0  0
   16.5570  -12.4680   23.0010 O   0  0  0  0  0  0  0  0  0  0  0  0
   18.1780  -14.5050   24.6150 C   0  0  0  0  0  0  0  0  0  0  0  0
   19.6110  -13.9940   24.6830 C   0  0  0  0  0  0  0  0  0  0  0  0
   20.6710  -14.6660   24.0630 C   0  0  0  0  0  0  0  0  0  0  0  0
   19.8780  -12.8100   25.3900 C   0  0  0  0  0  0  0  0  0  0  0  0
   21.9580  -14.1600   24.1540 C   0  0  0  0  0  0  0  0  0  0  0  0
   21.1620  -12.3040   25.4820 C   0  0  0  0  0  0  0  0  0  0  0  0
   22.2090  -12.9810   24.8600 C   0  0  0  0  0  0  0  0  0  0  0  0
   18.3390  -12.7830   21.5650 N   0  0  0  0  0  0  0  0  0  0  0  0
   18.2050  -11.4320   20.9920 C   0  0  0  0  0  0  0  0  0  0  0  0
   16.7460  -11.3110   20.4680 C   0  0  0  0  0  0  0  0  0  0  0  0
   16.2600  -12.1930   19.7200 O   0  0  0  0  0  0  0  0  0  0  0  0
   19.1940  -11.4200   19.8060 C   0  0  0  0  0  0  0  0  0  0  0  0
   20.2390  -12.4020   20.2720 C   0  0  0  0  0  0  0  0  0  0  0  0
   19.4570  -13.5360   20.9490 C   0  0  0  0  0  0  0  0  0  0  0  0
   16.0870  -10.1430   20.7160 N   0  0  0  0  0  0  0  0  0  0  0  0
   14.7610   -9.8760   20.1810 C   0  0  0  0  0  0  0  0  0  0  0  0
   13.7180  -10.4350   21.0910 C   0  0  0  0  0  0  0  0  0  0  0  0
   12.9340   -9.6220   21.8870 C   0  0  0  0  0  0  0  0  0  0  0  0
   11.9730  -10.0820   22.7300 N   0  0  0  0  0  0  0  0  0  0  0  0
   11.7790  -11.4190   22.7850 C   0  0  0  0  0  0  0  0  0  0  0  0
   12.5170  -12.2990   22.0250 C   0  0  0  0  0  0  0  0  0  0  0  0
   13.4900  -11.7940   21.1770 C   0  0  0  0  0  0  0  0  0  0  0  0
  2  1  1  0
  3  2  1  0
  5  2  1  0
  4  3  2  0
 12  3  1  0
  6  5  1  0
  7  6  2  0
  8  6  1  0
  9  7  1  0
 10  8  2  0
 11  9  2  0
 11 10  1  0
 13 12  1  0
 18 12  1  0
 14 13  1  0
 16 13  1  0
 15 14  2  0
 19 14  1  0
 17 16  1  0
 18 17  1  0
 20 19  1  0
 21 20  1  0
 22 21  2  0
 26 21  1  0
 23 22  1  0
 24 23  2  0
 25 24  1  0
 26 25  2  0
A    1
N4
A    2
C3
A    3
C5
A    4
O7
A    5
C2
A    6
C1
A    7
C8
A    8
C12
A    9
C9
A   10
C11
A   11
C10
A   12
N6
A   13
C13
A   14
C14
A   15
O15
A   16
C19
A   17
C20
A   18
C21
A   19
N16
A   20
C17
A   21
C18
A   22
C22
A   23
N23
A   24
C24
A   25
C25
A   26
C26
M  END
>  <Id>  (129) 
3P17_99P_H_1001

>  <ChainId>  (129) 
H

>  <AsymId>  (129) 
E

>  <SeqNum>  (129) 
1001

>  <Name>  (129) 
D-phenylalanyl-N-(pyridin-3-ylmethyl)-L-prolinamide

>  <SystematicName>  (129) 
(2S)-1-[(2R)-2-azanyl-3-phenyl-propanoyl]-N-(pyridin-3-ylmethyl)pyrrolidine-2-carboxamide

>  <Synonyms>  (129) 


>  <Type>  (129) 
peptide-like

>  <Formula>  (129) 
C20 H24 N4 O2

>  <ObservedFormula>  (129) 
C20 N4 O2

>  <MolecularWeight>  (129) 
352.43

>  <ModifiedDate>  (129) 
2012-09-12

>  <Parent>  (129) 


>  <OneLetterCode>  (129) 


>  <SubcomponentList>  (129) 
DPN PRO 0YC

>  <AmbiguousFlag>  (129) 
N

>  <InsertionCode>  (129) 


>  <InstanceId>  (129) 
3P17_99P_H_1001

>  <ChemCompId>  (129) 
99P

>  <PdbId>  (129) 
3P17

>  <ResidueNumber>  (129) 
1001

>  <InChI>  (129) 
InChI=1S/C20H24N4O2/c21-17(12-15-6-2-1-3-7-15)20(26)24-11-5-9-18(24)19(25)23-14-16-8-4-10-22-13-16/h1-4,6-8,10,13,17-18H,5,9,11-12,14,21H2,(H,23,25)/t17-,18+/m1/s1

>  <InChIKey>  (129) 
KNPSDIKTQZBRCN-MSOLQXFVSA-N

>  <SMILES>  (129) 
c1ccc(cc1)C[C@H](C(=O)N2CCC[C@H]2C(=O)NCc3cccnc3)N

>  <MissingHeavyAtoms>  (129) 
0

>  <Model>  (129) 
1

>  <AltIds>  (129) 


>  <pKI>  (129) 
4.48

>  <ChemblID>  (129) 
-

>  <standardized_canonical_smiles>  (129) 
N[C@H](Cc1ccccc1)C(=O)N1CCC[C@H]1C(=O)NCc1cccnc1

$$$$
3SV2_P05_H_1
     RDKit          3D

 26 28  0  0  0  0  0  0  0  0999 V2000
   16.4180  -15.5200   23.1810 N   0  0  0  0  0  0  0  0  0  0  0  0
   17.7190  -14.8760   23.1360 C   0  0  0  0  0  0  0  0  0  0  0  0
   17.5440  -13.4940   22.5390 C   0  0  0  0  0  0  0  0  0  0  0  0
   16.6280  -12.7610   22.9230 O   0  0  0  0  0  0  0  0  0  0  0  0
   18.2270  -14.7850   24.5750 C   0  0  0  0  0  0  0  0  0  0  0  0
   19.6320  -14.2480   24.6420 C   0  0  0  0  0  0  0  0  0  0  0  0
   19.8640  -13.0460   25.3050 C   0  0  0  0  0  0  0  0  0  0  0  0
   20.6930  -14.9330   24.0500 C   0  0  0  0  0  0  0  0  0  0  0  0
   21.1510  -12.5260   25.3690 C   0  0  0  0  0  0  0  0  0  0  0  0
   21.9780  -14.4170   24.1370 C   0  0  0  0  0  0  0  0  0  0  0  0
   22.2170  -13.2070   24.7870 C   0  0  0  0  0  0  0  0  0  0  0  0
   18.3880  -13.0960   21.5830 N   0  0  0  0  0  0  0  0  0  0  0  0
   18.1900  -11.7780   20.9800 C   0  0  0  0  0  0  0  0  0  0  0  0
   16.8140  -11.6760   20.3860 C   0  0  0  0  0  0  0  0  0  0  0  0
   16.3240  -12.6040   19.7390 O   0  0  0  0  0  0  0  0  0  0  0  0
   19.2130  -11.6680   19.8660 C   0  0  0  0  0  0  0  0  0  0  0  0
   20.2390  -12.7270   20.1870 C   0  0  0  0  0  0  0  0  0  0  0  0
   19.5080  -13.8260   20.9680 C   0  0  0  0  0  0  0  0  0  0  0  0
   14.8270  -10.2230   20.1030 C   0  0  0  0  0  0  0  0  0  0  0  0
   13.7650  -10.5290   21.1300 C   0  0  0  0  0  0  0  0  0  0  0  0
   13.1850   -9.5250   21.9130 C   0  0  0  0  0  0  0  0  0  0  0  0
   12.2070   -9.8740   22.8340 C   0  0  0  0  0  0  0  0  0  0  0  0
   12.3610  -12.1220   22.2190 C   0  0  0  0  0  0  0  0  0  0  0  0
   13.3520  -11.8470   21.2870 C   0  0  0  0  0  0  0  0  0  0  0  0
   16.1610  -10.5290   20.5910 N   0  0  0  0  0  0  0  0  0  0  0  0
   11.8080  -11.1510   22.9530 N   0  0  0  0  0  0  0  0  0  0  0  0
  2  1  1  0
  3  2  1  0
  5  2  1  0
  4  3  2  0
 12  3  1  0
  6  5  1  0
  7  6  2  0
  8  6  1  0
  9  7  1  0
 10  8  2  0
 11  9  2  0
 11 10  1  0
 13 12  1  0
 18 12  1  0
 14 13  1  0
 16 13  1  0
 15 14  2  0
 25 14  1  0
 17 16  1  0
 18 17  1  0
 20 19  1  0
 25 19  1  0
 21 20  2  0
 24 20  1  0
 22 21  1  0
 26 22  2  0
 24 23  2  0
 26 23  1  0
A    1
N21
A    2
C8
A    3
C9
A    4
O25
A    5
C7
A    6
C4
A    7
C3
A    8
C5
A    9
C2
A   10
C6
A   11
C1
A   12
N22
A   13
C13
A   14
C14
A   15
O26
A   16
C12
A   17
C11
A   18
C10
A   19
C15
A   20
C16
A   21
C17
A   22
C18
A   23
C19
A   24
C20
A   25
N23
A   26
N24
M  END
>  <Id>  (130) 
3SV2_P05_H_1

>  <ChainId>  (130) 
H

>  <AsymId>  (130) 
E

>  <SeqNum>  (130) 
1

>  <Name>  (130) 
D-phenylalanyl-N-(pyridin-4-ylmethyl)-L-prolinamide

>  <SystematicName>  (130) 
(2S)-1-[(2R)-2-azanyl-3-phenyl-propanoyl]-N-(pyridin-4-ylmethyl)pyrrolidine-2-carboxamide

>  <Synonyms>  (130) 


>  <Type>  (130) 
peptide-like

>  <Formula>  (130) 
C20 H24 N4 O2

>  <ObservedFormula>  (130) 
C20 N4 O2

>  <MolecularWeight>  (130) 
352.43

>  <ModifiedDate>  (130) 
2012-06-15

>  <Parent>  (130) 


>  <OneLetterCode>  (130) 


>  <SubcomponentList>  (130) 
DPN PRO NNW

>  <AmbiguousFlag>  (130) 
N

>  <InsertionCode>  (130) 


>  <InstanceId>  (130) 
3SV2_P05_H_1

>  <ChemCompId>  (130) 
P05

>  <PdbId>  (130) 
3SV2

>  <ResidueNumber>  (130) 
1

>  <InChI>  (130) 
InChI=1S/C20H24N4O2/c21-17(13-15-5-2-1-3-6-15)20(26)24-12-4-7-18(24)19(25)23-14-16-8-10-22-11-9-16/h1-3,5-6,8-11,17-18H,4,7,12-14,21H2,(H,23,25)/t17-,18+/m1/s1

>  <InChIKey>  (130) 
NYODECMUQISAKD-MSOLQXFVSA-N

>  <SMILES>  (130) 
c1ccc(cc1)C[C@H](C(=O)N2CCC[C@H]2C(=O)NCc3ccncc3)N

>  <MissingHeavyAtoms>  (130) 
0

>  <Model>  (130) 
1

>  <AltIds>  (130) 


>  <pKI>  (130) 
4.19

>  <ChemblID>  (130) 
-

>  <standardized_canonical_smiles>  (130) 
N[C@H](Cc1ccccc1)C(=O)N1CCC[C@H]1C(=O)NCc1ccncc1

$$$$
3SHA_P97_H_1
     RDKit          3D

 27 29  0  0  0  0  0  0  0  0999 V2000
  -16.4730  -15.2100  -23.0850 N   0  0  0  0  0  0  0  0  0  0  0  0
  -17.7530  -14.5200  -23.0690 C   0  0  0  0  0  0  0  0  0  0  0  0
  -17.5340  -13.1460  -22.4830 C   0  0  0  0  0  0  0  0  0  0  0  0
  -16.5920  -12.4510  -22.8500 O   0  0  0  0  0  0  0  0  0  0  0  0
  -18.2930  -14.4790  -24.5010 C   0  0  0  0  0  0  0  0  0  0  0  0
  -19.7100  -13.9460  -24.5650 C   0  0  0  0  0  0  0  0  0  0  0  0
  -20.7670  -14.6060  -23.9410 C   0  0  0  0  0  0  0  0  0  0  0  0
  -19.9890  -12.7930  -25.2820 C   0  0  0  0  0  0  0  0  0  0  0  0
  -22.0590  -14.0890  -24.0320 C   0  0  0  0  0  0  0  0  0  0  0  0
  -21.2770  -12.2680  -25.3650 C   0  0  0  0  0  0  0  0  0  0  0  0
  -22.3340  -12.9260  -24.7400 C   0  0  0  0  0  0  0  0  0  0  0  0
  -18.3800  -12.7030  -21.5680 N   0  0  0  0  0  0  0  0  0  0  0  0
  -18.1560  -11.3840  -20.9760 C   0  0  0  0  0  0  0  0  0  0  0  0
  -16.8050  -11.3500  -20.3040 C   0  0  0  0  0  0  0  0  0  0  0  0
  -16.4070  -12.2900  -19.6140 O   0  0  0  0  0  0  0  0  0  0  0  0
  -19.2840  -11.2030  -19.9640 C   0  0  0  0  0  0  0  0  0  0  0  0
  -20.3080  -12.2870  -20.2840 C   0  0  0  0  0  0  0  0  0  0  0  0
  -19.5420  -13.3950  -20.9960 C   0  0  0  0  0  0  0  0  0  0  0  0
  -16.0440  -10.2740  -20.5320 N   0  0  0  0  0  0  0  0  0  0  0  0
  -14.7080  -10.1080  -19.9520 C   0  0  0  0  0  0  0  0  0  0  0  0
  -13.6680  -10.9010  -20.7100 C   0  0  0  0  0  0  0  0  0  0  0  0
  -13.3470  -12.2020  -20.3320 C   0  0  0  0  0  0  0  0  0  0  0  0
  -12.4230  -12.8960  -21.0100 N   0  0  0  0  0  0  0  0  0  0  0  0
  -11.7800  -12.3770  -22.0650 C   0  0  0  0  0  0  0  0  0  0  0  0
  -12.0560  -11.0840  -22.4840 C   0  0  0  0  0  0  0  0  0  0  0  0
  -13.0080  -10.3610  -21.7820 C   0  0  0  0  0  0  0  0  0  0  0  0
  -13.3970   -8.7080  -22.3060 Cl  0  0  0  0  0  0  0  0  0  0  0  0
  2  1  1  0
  3  2  1  0
  5  2  1  0
  4  3  2  0
 12  3  1  0
  6  5  1  0
  7  6  2  0
  8  6  1  0
  9  7  1  0
 10  8  2  0
 11  9  2  0
 11 10  1  0
 13 12  1  0
 18 12  1  0
 14 13  1  0
 16 13  1  0
 15 14  2  0
 19 14  1  0
 17 16  1  0
 18 17  1  0
 20 19  1  0
 21 20  1  0
 22 21  2  0
 26 21  1  0
 23 22  1  0
 24 23  2  0
 25 24  1  0
 26 25  2  0
 27 26  1  0
A    1
N4
A    2
C3
A    3
C5
A    4
O7
A    5
C2
A    6
C1
A    7
C8
A    8
C12
A    9
C9
A   10
C11
A   11
C10
A   12
N6
A   13
C13
A   14
C14
A   15
O15
A   16
C19
A   17
C20
A   18
C21
A   19
N16
A   20
C17
A   21
C18
A   22
C22
A   23
N23
A   24
C24
A   25
C25
A   26
C26
A   27
CL27
M  END
>  <Id>  (131) 
3SHA_P97_H_1

>  <ChainId>  (131) 
H

>  <AsymId>  (131) 
E

>  <SeqNum>  (131) 
1

>  <Name>  (131) 
D-phenylalanyl-N-[(4-chloropyridin-3-yl)methyl]-L-prolinamide

>  <SystematicName>  (131) 
(2S)-1-[(2R)-2-azanyl-3-phenyl-propanoyl]-N-[(4-chloranylpyridin-3-yl)methyl]pyrrolidine-2-carboxamide

>  <Synonyms>  (131) 


>  <Type>  (131) 
peptide-like

>  <Formula>  (131) 
C20 H23 Cl N4 O2

>  <ObservedFormula>  (131) 
C20 Cl N4 O2

>  <MolecularWeight>  (131) 
386.875

>  <ModifiedDate>  (131) 
2012-06-15

>  <Parent>  (131) 


>  <OneLetterCode>  (131) 


>  <SubcomponentList>  (131) 
DPN PRO NNU

>  <AmbiguousFlag>  (131) 
N

>  <InsertionCode>  (131) 


>  <InstanceId>  (131) 
3SHA_P97_H_1

>  <ChemCompId>  (131) 
P97

>  <PdbId>  (131) 
3SHA

>  <ResidueNumber>  (131) 
1

>  <InChI>  (131) 
InChI=1S/C20H23ClN4O2/c21-16-8-9-23-12-15(16)13-24-19(26)18-7-4-10-25(18)20(27)17(22)11-14-5-2-1-3-6-14/h1-3,5-6,8-9,12,17-18H,4,7,10-11,13,22H2,(H,24,26)/t17-,18+/m1/s1

>  <InChIKey>  (131) 
ZRBVLANXQQYBLM-MSOLQXFVSA-N

>  <SMILES>  (131) 
c1ccc(cc1)C[C@H](C(=O)N2CCC[C@H]2C(=O)NCc3cnccc3Cl)N

>  <MissingHeavyAtoms>  (131) 
0

>  <Model>  (131) 
1

>  <AltIds>  (131) 


>  <pKI>  (131) 
5.59

>  <ChemblID>  (131) 
-

>  <standardized_canonical_smiles>  (131) 
N[C@H](Cc1ccccc1)C(=O)N1CCC[C@H]1C(=O)NCc1cnccc1Cl

$$$$
3DHK_23U_H_1601
     RDKit          3D

 33 36  0  0  0  0  0  0  0  0999 V2000
   19.3460  -14.2430   24.8680 C   0  0  0  0  0  0  0  0  0  0  0  0
   19.6330  -13.1540   25.6850 C   0  0  0  0  0  0  0  0  0  0  0  0
   20.9350  -12.6580   25.7570 C   0  0  0  0  0  0  0  0  0  0  0  0
   21.9630  -13.2490   25.0110 C   0  0  0  0  0  0  0  0  0  0  0  0
   21.6890  -14.3410   24.1900 C   0  0  0  0  0  0  0  0  0  0  0  0
   20.3820  -14.8350   24.1190 C   0  0  0  0  0  0  0  0  0  0  0  0
   17.8330  -16.0360   25.6990 C   0  0  0  0  0  0  0  0  0  0  0  0
   17.9070  -14.7760   24.7980 C   0  0  0  0  0  0  0  0  0  0  0  0
   17.4210  -14.9820   23.3300 C   0  0  0  0  0  0  0  0  0  0  0  0
   16.2050  -15.8320   23.3000 N   0  0  0  0  0  0  0  0  0  0  0  0
   17.2480  -13.5970   22.6830 C   0  0  0  0  0  0  0  0  0  0  0  0
   16.3220  -12.9400   23.1570 O   0  0  0  0  0  0  0  0  0  0  0  0
   17.9970  -13.1240   21.6610 N   0  0  0  0  0  0  0  0  0  0  0  0
   19.0400  -13.9400   21.0120 C   0  0  0  0  0  0  0  0  0  0  0  0
   19.7890  -12.8140   20.2550 C   0  0  0  0  0  0  0  0  0  0  0  0
   18.6160  -11.9370   19.7510 C   0  0  0  0  0  0  0  0  0  0  0  0
   17.7330  -11.8390   21.0280 C   0  0  0  0  0  0  0  0  0  0  0  0
   16.2780  -11.7360   20.6310 C   0  0  0  0  0  0  0  0  0  0  0  0
   15.6470  -10.5650   20.8610 N   0  0  0  0  0  0  0  0  0  0  0  0
   14.2860  -10.3630   20.3600 C   0  0  0  0  0  0  0  0  0  0  0  0
   13.2730  -10.3160   21.5220 C   0  0  0  0  0  0  0  0  0  0  0  0
   12.3830  -11.3660   21.7460 C   0  0  0  0  0  0  0  0  0  0  0  0
   11.4660  -11.3290   22.7960 C   0  0  0  0  0  0  0  0  0  0  0  0
   11.4270  -10.2260   23.6430 C   0  0  0  0  0  0  0  0  0  0  0  0
   12.3120   -9.1700   23.4310 C   0  0  0  0  0  0  0  0  0  0  0  0
   13.2310   -9.2060   22.3810 C   0  0  0  0  0  0  0  0  0  0  0  0
   12.2430   -7.7960   24.5140 Cl  0  0  0  0  0  0  0  0  0  0  0  0
   15.7490  -12.7140   20.1110 O   0  0  0  0  0  0  0  0  0  0  0  0
   17.2830  -16.0360   26.9810 C   0  0  0  0  0  0  0  0  0  0  0  0
   17.2590  -17.2200   27.7230 C   0  0  0  0  0  0  0  0  0  0  0  0
   17.7800  -18.3920   27.1840 C   0  0  0  0  0  0  0  0  0  0  0  0
   18.3340  -18.4000   25.8990 C   0  0  0  0  0  0  0  0  0  0  0  0
   18.3570  -17.2180   25.1600 C   0  0  0  0  0  0  0  0  0  0  0  0
  2  1  2  0
  6  1  1  0
  8  1  1  0
  3  2  1  0
  4  3  2  0
  5  4  1  0
  6  5  2  0
  8  7  1  0
 29  7  2  0
 33  7  1  0
  9  8  1  0
 10  9  1  0
 11  9  1  0
 12 11  2  0
 13 11  1  0
 14 13  1  0
 17 13  1  0
 15 14  1  0
 16 15  1  0
 17 16  1  0
 18 17  1  0
 19 18  1  0
 28 18  2  0
 20 19  1  0
 21 20  1  0
 22 21  2  0
 26 21  1  0
 23 22  1  0
 24 23  2  0
 25 24  1  0
 26 25  2  0
 27 25  1  0
 30 29  1  0
 31 30  2  0
 32 31  1  0
 33 32  2  0
A    1
C1
A    2
C2
A    3
C3
A    4
C4
A    5
C5
A    6
C6
A    7
C7
A    8
C8
A    9
C9
A   10
N2
A   11
C10
A   12
O32
A   13
N1
A   14
C11
A   15
C12
A   16
C13
A   17
C14
A   18
C15
A   19
N23
A   20
C16
A   21
C17
A   22
C18
A   23
C19
A   24
C20
A   25
C21
A   26
C22
A   27
CL1
A   28
O22
A   29
C23
A   30
C24
A   31
C25
A   32
C26
A   33
C27
M  END
>  <Id>  (132) 
3DHK_23U_H_1601

>  <ChainId>  (132) 
H

>  <AsymId>  (132) 
D

>  <SeqNum>  (132) 
1601

>  <Name>  (132) 
beta-phenyl-D-phenylalanyl-N-(3-chlorobenzyl)-L-prolinamide

>  <SystematicName>  (132) 
(2S)-1-[(2R)-2-amino-3,3-diphenyl-propanoyl]-N-[(3-chlorophenyl)methyl]pyrrolidine-2-carboxamide

>  <Synonyms>  (132) 


>  <Type>  (132) 
NON-POLYMER

>  <Formula>  (132) 
C27 H28 Cl N3 O2

>  <ObservedFormula>  (132) 
C27 Cl N3 O2

>  <MolecularWeight>  (132) 
461.983

>  <ModifiedDate>  (132) 
2011-06-04

>  <Parent>  (132) 


>  <OneLetterCode>  (132) 


>  <SubcomponentList>  (132) 


>  <AmbiguousFlag>  (132) 
N

>  <InsertionCode>  (132) 


>  <InstanceId>  (132) 
3DHK_23U_H_1601

>  <ChemCompId>  (132) 
23U

>  <PdbId>  (132) 
3DHK

>  <ResidueNumber>  (132) 
1601

>  <InChI>  (132) 
InChI=1S/C27H28ClN3O2/c28-22-14-7-9-19(17-22)18-30-26(32)23-15-8-16-31(23)27(33)25(29)24(20-10-3-1-4-11-20)21-12-5-2-6-13-21/h1-7,9-14,17,23-25H,8,15-16,18,29H2,(H,30,32)/t23-,25+/m0/s1

>  <InChIKey>  (132) 
LJTKFVOSAVCILF-UKILVPOCSA-N

>  <SMILES>  (132) 
c1ccc(cc1)C(c2ccccc2)[C@H](C(=O)N3CCC[C@H]3C(=O)NCc4cccc(c4)Cl)N

>  <MissingHeavyAtoms>  (132) 
0

>  <Model>  (132) 
1

>  <AltIds>  (132) 


>  <pKI>  (132) 
7.33

>  <ChemblID>  (132) 
-

>  <standardized_canonical_smiles>  (132) 
N[C@@H](C(=O)N1CCC[C@H]1C(=O)NCc1cccc(Cl)c1)C(c1ccccc1)c1ccccc1

$$$$
5MJT_23U_H_301
     RDKit          3D

 33 36  0  0  0  0  0  0  0  0999 V2000
   18.0760  -14.6740   25.6790 C   0  0  0  0  0  0  0  0  0  0  0  0
   17.5540  -14.5670   26.9620 C   0  0  0  0  0  0  0  0  0  0  0  0
   17.5020  -15.6660   27.8020 C   0  0  0  0  0  0  0  0  0  0  0  0
   17.9420  -16.8910   27.3640 C   0  0  0  0  0  0  0  0  0  0  0  0
   18.4440  -17.0190   26.0830 C   0  0  0  0  0  0  0  0  0  0  0  0
   18.5240  -15.9110   25.2490 C   0  0  0  0  0  0  0  0  0  0  0  0
   19.5910  -12.8670   24.8290 C   0  0  0  0  0  0  0  0  0  0  0  0
   18.1860  -13.4540   24.7730 C   0  0  0  0  0  0  0  0  0  0  0  0
   17.6300  -13.6410   23.3370 C   0  0  0  0  0  0  0  0  0  0  0  0
   16.3210  -14.3350   23.3430 N   0  0  0  0  0  0  0  0  0  0  0  0
   17.4240  -12.2560   22.7110 C   0  0  0  0  0  0  0  0  0  0  0  0
   16.5400  -11.5350   23.1540 O   0  0  0  0  0  0  0  0  0  0  0  0
   18.1620  -11.8810   21.6550 N   0  0  0  0  0  0  0  0  0  0  0  0
   19.2040  -12.6320   20.9220 C   0  0  0  0  0  0  0  0  0  0  0  0
   19.9390  -11.5540   20.1570 C   0  0  0  0  0  0  0  0  0  0  0  0
   18.8540  -10.5040   19.8530 C   0  0  0  0  0  0  0  0  0  0  0  0
   17.9030  -10.5580   21.0540 C   0  0  0  0  0  0  0  0  0  0  0  0
   16.4530  -10.4650   20.5940 C   0  0  0  0  0  0  0  0  0  0  0  0
   15.8580   -9.3010   20.8230 N   0  0  0  0  0  0  0  0  0  0  0  0
   14.4810   -9.0370   20.4170 C   0  0  0  0  0  0  0  0  0  0  0  0
   13.4900   -9.0030   21.5530 C   0  0  0  0  0  0  0  0  0  0  0  0
   12.6040  -10.0490   21.7480 C   0  0  0  0  0  0  0  0  0  0  0  0
   11.6910  -10.0260   22.7900 C   0  0  0  0  0  0  0  0  0  0  0  0
   11.6320   -8.9330   23.6460 C   0  0  0  0  0  0  0  0  0  0  0  0
   12.5070   -7.8880   23.4330 C   0  0  0  0  0  0  0  0  0  0  0  0
   13.4370   -7.9080   22.4150 C   0  0  0  0  0  0  0  0  0  0  0  0
   12.4480   -6.4920   24.4790 Cl  0  0  0  0  0  0  0  0  0  0  0  0
   15.9000  -11.4000   20.0340 O   0  0  0  0  0  0  0  0  0  0  0  0
   19.8850  -11.7990   25.6660 C   0  0  0  0  0  0  0  0  0  0  0  0
   21.1720  -11.2850   25.7400 C   0  0  0  0  0  0  0  0  0  0  0  0
   22.1890  -11.8480   24.9810 C   0  0  0  0  0  0  0  0  0  0  0  0
   21.9130  -12.9150   24.1510 C   0  0  0  0  0  0  0  0  0  0  0  0
   20.6260  -13.4230   24.0660 C   0  0  0  0  0  0  0  0  0  0  0  0
  2  1  2  0
  6  1  1  0
  8  1  1  0
  3  2  1  0
  4  3  2  0
  5  4  1  0
  6  5  2  0
  8  7  1  0
 29  7  2  0
 33  7  1  0
  9  8  1  0
 10  9  1  0
 11  9  1  0
 12 11  2  0
 13 11  1  0
 14 13  1  0
 17 13  1  0
 15 14  1  0
 16 15  1  0
 17 16  1  0
 18 17  1  0
 19 18  1  0
 28 18  2  0
 20 19  1  0
 21 20  1  0
 22 21  2  0
 26 21  1  0
 23 22  1  0
 24 23  2  0
 25 24  1  0
 26 25  2  0
 27 25  1  0
 30 29  1  0
 31 30  2  0
 32 31  1  0
 33 32  2  0
A    1
C1
A    2
C2
A    3
C3
A    4
C4
A    5
C5
A    6
C6
A    7
C7
A    8
C8
A    9
C9
A   10
N2
A   11
C10
A   12
O32
A   13
N1
A   14
C11
A   15
C12
A   16
C13
A   17
C14
A   18
C15
A   19
N23
A   20
C16
A   21
C17
A   22
C18
A   23
C19
A   24
C20
A   25
C21
A   26
C22
A   27
CL1
A   28
O22
A   29
C23
A   30
C24
A   31
C25
A   32
C26
A   33
C27
M  END
>  <Id>  (133) 
5MJT_23U_H_301

>  <ChainId>  (133) 
H

>  <AsymId>  (133) 
D

>  <SeqNum>  (133) 
301

>  <Name>  (133) 
beta-phenyl-D-phenylalanyl-N-(3-chlorobenzyl)-L-prolinamide

>  <SystematicName>  (133) 
(2S)-1-[(2R)-2-amino-3,3-diphenyl-propanoyl]-N-[(3-chlorophenyl)methyl]pyrrolidine-2-carboxamide

>  <Synonyms>  (133) 


>  <Type>  (133) 
NON-POLYMER

>  <Formula>  (133) 
C27 H28 Cl N3 O2

>  <ObservedFormula>  (133) 
C27 Cl N3 O2

>  <MolecularWeight>  (133) 
461.983

>  <ModifiedDate>  (133) 
2011-06-04

>  <Parent>  (133) 


>  <OneLetterCode>  (133) 


>  <SubcomponentList>  (133) 


>  <AmbiguousFlag>  (133) 
N

>  <InsertionCode>  (133) 


>  <InstanceId>  (133) 
5MJT_23U_H_301

>  <ChemCompId>  (133) 
23U

>  <PdbId>  (133) 
5MJT

>  <ResidueNumber>  (133) 
301

>  <InChI>  (133) 
InChI=1S/C27H28ClN3O2/c28-22-14-7-9-19(17-22)18-30-26(32)23-15-8-16-31(23)27(33)25(29)24(20-10-3-1-4-11-20)21-12-5-2-6-13-21/h1-7,9-14,17,23-25H,8,15-16,18,29H2,(H,30,32)/t23-,25+/m0/s1

>  <InChIKey>  (133) 
LJTKFVOSAVCILF-UKILVPOCSA-N

>  <SMILES>  (133) 
c1ccc(cc1)C(c2ccccc2)[C@H](C(=O)N3CCC[C@H]3C(=O)NCc4cccc(c4)Cl)N

>  <MissingHeavyAtoms>  (133) 
0

>  <Model>  (133) 
1

>  <AltIds>  (133) 


>  <pKI>  (133) 
7.33

>  <ChemblID>  (133) 
-

>  <standardized_canonical_smiles>  (133) 
N[C@@H](C(=O)N1CCC[C@H]1C(=O)NCc1cccc(Cl)c1)C(c1ccccc1)c1ccccc1

$$$$
1YPG_UIR_H_5555
     RDKit          3D

 34 40  0  0  0  0  0  0  0  0999 V2000
   10.3920  -11.8420   24.2390 N   0  0  0  0  0  0  0  0  0  0  0  0
   11.1550  -10.8420   23.7920 C   0  0  0  0  0  0  0  0  0  0  0  0
   12.2240  -10.9460   22.8520 C   0  0  0  0  0  0  0  0  0  0  0  0
   12.5480  -12.1990   22.3090 C   0  0  0  0  0  0  0  0  0  0  0  0
   13.5860  -12.3050   21.3830 C   0  0  0  0  0  0  0  0  0  0  0  0
   14.3110  -11.1800   20.9780 C   0  0  0  0  0  0  0  0  0  0  0  0
   15.4670  -11.3170   20.0350 C   0  0  0  0  0  0  0  0  0  0  0  0
   15.3400  -12.5240   19.1570 N   0  0  0  0  0  0  0  0  0  0  0  0
   14.3840  -12.3600   18.0190 C   0  0  0  0  0  0  0  0  0  0  0  0
   15.2470  -12.4590   16.7320 C   0  0  0  0  0  0  0  0  0  0  0  0
   16.6180  -11.9890   17.1840 C   0  0  0  0  0  0  0  0  0  0  0  0
   16.7240  -12.6920   18.5650 C   0  0  0  0  0  0  0  0  0  0  0  0
   17.7200  -11.8570   19.4210 C   0  0  0  0  0  0  0  0  0  0  0  0
   20.3410  -12.8900   19.8910 C   0  0  0  0  0  0  0  0  0  0  0  0
   18.8290  -12.7630   20.0550 C   0  0  0  0  0  0  0  0  0  0  0  0
   21.1640  -12.3390   20.3800 C   0  0  0  0  0  0  0  0  0  0  0  0
   20.8360  -12.0190   18.7640 C   0  0  0  0  0  0  0  0  0  0  0  0
   18.2280  -13.2680   21.2590 N   0  0  0  0  0  0  0  0  0  0  0  0
   17.0320  -12.6620   21.5760 C   0  0  0  0  0  0  0  0  0  0  0  0
   16.4330  -12.7950   22.6740 O   0  0  0  0  0  0  0  0  0  0  0  0
   16.8800  -11.4280   20.6600 C   0  0  0  0  0  0  0  0  0  0  0  0
   18.7190  -14.4170   22.0850 C   0  0  0  0  0  0  0  0  0  0  0  0
   19.6590  -14.0670   23.2310 C   0  0  0  0  0  0  0  0  0  0  0  0
   21.0380  -14.2840   23.0270 C   0  0  0  0  0  0  0  0  0  0  0  0
   21.9160  -13.9620   24.0820 C   0  0  0  0  0  0  0  0  0  0  0  0
   23.3120  -14.1140   24.0690 O   0  0  0  0  0  0  0  0  0  0  0  0
   23.6860  -13.6450   25.3880 C   0  0  0  0  0  0  0  0  0  0  0  0
   22.5010  -13.2210   26.1480 O   0  0  0  0  0  0  0  0  0  0  0  0
   21.4410  -13.4380   25.3020 C   0  0  0  0  0  0  0  0  0  0  0  0
   20.0810  -13.2230   25.5570 C   0  0  0  0  0  0  0  0  0  0  0  0
   19.2140  -13.5370   24.4830 C   0  0  0  0  0  0  0  0  0  0  0  0
   13.9800   -9.9340   21.5300 C   0  0  0  0  0  0  0  0  0  0  0  0
   12.9500   -9.8170   22.4480 C   0  0  0  0  0  0  0  0  0  0  0  0
   10.8240   -9.6400   24.3340 N   0  0  0  0  0  0  0  0  0  0  0  0
  2  1  1  0
  3  2  1  0
 34  2  2  0
  4  3  2  0
 33  3  1  0
  5  4  1  0
  6  5  2  0
  7  6  1  0
 32  6  1  0
  8  7  1  0
 21  7  1  0
  9  8  1  0
 12  8  1  0
 10  9  1  0
 11 10  1  0
 12 11  1  0
 13 12  1  0
 15 13  1  0
 21 13  1  0
 15 14  1  0
 16 14  1  0
 17 14  1  0
 18 15  1  0
 17 16  1  0
 19 18  1  0
 22 18  1  0
 20 19  2  0
 21 19  1  0
 23 22  1  0
 24 23  2  0
 31 23  1  0
 25 24  1  0
 26 25  1  0
 29 25  2  0
 27 26  1  0
 28 27  1  0
 29 28  1  0
 30 29  1  0
 31 30  2  0
 33 32  2  0
A    1
N1
A    2
C3
A    3
C4
A    4
C9
A    5
C8
A    6
C7
A    7
C10
A    8
N11
A    9
C12
A   10
C13
A   11
C14
A   12
C15
A   13
C16
A   14
C18
A   15
C17
A   16
C42
A   17
C41
A   18
N19
A   19
C20
A   20
O21
A   21
C22
A   22
C23
A   23
C24
A   24
C25
A   25
C26
A   26
O27
A   27
C28
A   28
O29
A   29
C30
A   30
C31
A   31
C32
A   32
C6
A   33
C5
A   34
N2
M  END
>  <Id>  (134) 
1YPG_UIR_H_5555

>  <ChainId>  (134) 
H

>  <AsymId>  (134) 
D

>  <SeqNum>  (134) 
5555

>  <Name>  (134) 
(1R,3AS,4R,8AS,8BR)-4-(2-BENZO[1,3]DIOXOL-5-YL-1-CYCLOPROPYL-3-OXO-DECAHYDRO-PYRROLO[3,4-A]PYRROLIZIN-4-YL)-BENZAMIDINE

>  <SystematicName>  (134) 
4-[(1R,3aS,4R,5S,8aS,8bR)-2-(1,3-benzodioxol-5-ylmethyl)-1-cyclopropyl-3-oxo-1,3a,4,6,7,8,8a,8b-octahydropyrrolo[3,4-a]pyrrolizin-4-yl]benzenecarboximidamide

>  <Synonyms>  (134) 


>  <Type>  (134) 
NON-POLYMER

>  <Formula>  (134) 
C27 H30 N4 O3

>  <ObservedFormula>  (134) 
C27 N4 O3

>  <MolecularWeight>  (134) 
458.552

>  <ModifiedDate>  (134) 
2011-06-04

>  <Parent>  (134) 


>  <OneLetterCode>  (134) 


>  <SubcomponentList>  (134) 


>  <AmbiguousFlag>  (134) 
N

>  <InsertionCode>  (134) 


>  <InstanceId>  (134) 
1YPG_UIR_H_5555

>  <ChemCompId>  (134) 
UIR

>  <PdbId>  (134) 
1YPG

>  <ResidueNumber>  (134) 
5555

>  <InChI>  (134) 
InChI=1S/C27H30N4O3/c28-26(29)18-8-6-17(7-9-18)25-23-22(19-2-1-11-30(19)25)24(16-4-5-16)31(27(23)32)13-15-3-10-20-21(12-15)34-14-33-20/h3,6-10,12,16,19,22-25H,1-2,4-5,11,13-14H2,(H3,28,29)/t19-,22-,23-,24+,25-/m0/s1

>  <InChIKey>  (134) 
XYMBMAVAMICSMV-FTSNLURZSA-N

>  <SMILES>  (134) 
c1cc(ccc1[C@H]2[C@@H]3[C@H]([C@H]4[N@@]2CCC4)[C@H](N(C3=O)Cc5ccc6c(c5)OCO6)C7CC7)C(=N)N

>  <MissingHeavyAtoms>  (134) 
0

>  <Model>  (134) 
1

>  <AltIds>  (134) 


>  <pKI>  (134) 
8.0

>  <ChemblID>  (134) 
-

>  <standardized_canonical_smiles>  (134) 
N=C(N)c1ccc([C@H]2[C@H]3C(=O)N(Cc4ccc5c(c4)OCO5)[C@H](C4CC4)[C@H]3[C@@H]3CCCN32)cc1

$$$$
1VZQ_SHY_H_1256
     RDKit          3D

 33 38  0  0  0  0  0  0  0  0999 V2000
   11.2730   -9.8910   24.4230 N   0  0  0  0  0  0  0  0  0  0  0  0
   11.5310  -10.9910   23.6610 C   0  0  0  0  0  0  0  0  0  0  0  0
   10.7380  -12.0870   23.8820 N   0  0  0  0  0  0  0  0  0  0  0  0
   12.6280  -11.0420   22.7280 C   0  0  0  0  0  0  0  0  0  0  0  0
   13.3690   -9.8970   22.4750 C   0  0  0  0  0  0  0  0  0  0  0  0
   14.4520   -9.9450   21.5940 C   0  0  0  0  0  0  0  0  0  0  0  0
   14.8080  -11.1520   20.9470 C   0  0  0  0  0  0  0  0  0  0  0  0
   14.0210  -12.2790   21.1820 C   0  0  0  0  0  0  0  0  0  0  0  0
   12.9520  -12.2380   22.0500 C   0  0  0  0  0  0  0  0  0  0  0  0
   16.0330  -11.1260   20.0470 C   0  0  0  0  0  0  0  0  0  0  0  0
   15.9840  -12.2420   19.0630 N   0  0  0  0  0  0  0  0  0  0  0  0
   15.1070  -11.8710   17.9050 C   0  0  0  0  0  0  0  0  0  0  0  0
   15.9910  -11.7140   16.6510 C   0  0  0  0  0  0  0  0  0  0  0  0
   17.3470  -11.3690   17.2850 C   0  0  0  0  0  0  0  0  0  0  0  0
   17.3700  -12.2570   18.5040 C   0  0  0  0  0  0  0  0  0  0  0  0
   18.3570  -11.6980   19.5540 C   0  0  0  0  0  0  0  0  0  0  0  0
   19.1540  -12.7910   20.1560 C   0  0  0  0  0  0  0  0  0  0  0  0
   18.5860  -13.2780   21.3270 N   0  0  0  0  0  0  0  0  0  0  0  0
   17.4670  -12.4790   21.6720 C   0  0  0  0  0  0  0  0  0  0  0  0
   16.7470  -12.7340   22.6270 O   0  0  0  0  0  0  0  0  0  0  0  0
   17.3990  -11.2870   20.7360 C   0  0  0  0  0  0  0  0  0  0  0  0
   18.9930  -14.4320   22.1400 C   0  0  0  0  0  0  0  0  0  0  0  0
   20.0690  -14.1490   23.1270 C   0  0  0  0  0  0  0  0  0  0  0  0
   19.6810  -13.8530   24.4260 C   0  0  0  0  0  0  0  0  0  0  0  0
   20.5780  -13.5150   25.4190 C   0  0  0  0  0  0  0  0  0  0  0  0
   21.9210  -13.4690   25.0290 C   0  0  0  0  0  0  0  0  0  0  0  0
   22.9690  -13.1850   25.8140 O   0  0  0  0  0  0  0  0  0  0  0  0
   24.1320  -13.2920   24.9510 C   0  0  0  0  0  0  0  0  0  0  0  0
   16.1570  -12.9510   15.9450 O   0  0  0  0  0  0  0  0  0  0  0  0
   23.6860  -13.7380   23.6270 O   0  0  0  0  0  0  0  0  0  0  0  0
   22.3270  -13.7490   23.7400 C   0  0  0  0  0  0  0  0  0  0  0  0
   21.4170  -14.1010   22.7560 C   0  0  0  0  0  0  0  0  0  0  0  0
   20.1560  -13.3290   19.7070 O   0  0  0  0  0  0  0  0  0  0  0  0
  2  1  2  0
  3  2  1  0
  4  2  1  0
  5  4  2  0
  9  4  1  0
  6  5  1  0
  7  6  2  0
  8  7  1  0
 10  7  1  0
  9  8  2  0
 11 10  1  0
 21 10  1  0
 12 11  1  0
 15 11  1  0
 13 12  1  0
 14 13  1  0
 29 13  1  0
 15 14  1  0
 16 15  1  0
 17 16  1  0
 21 16  1  0
 18 17  1  0
 33 17  2  0
 19 18  1  0
 22 18  1  0
 20 19  2  0
 21 19  1  0
 23 22  1  0
 24 23  2  0
 32 23  1  0
 25 24  1  0
 26 25  2  0
 27 26  1  0
 31 26  1  0
 28 27  1  0
 30 28  1  0
 31 30  1  0
 32 31  2  0
A    1
N1
A    2
C3
A    3
N2
A    4
C4
A    5
C9
A    6
C8
A    7
C7
A    8
C6
A    9
C5
A   10
C10
A   11
N11
A   12
C12
A   13
C13
A   14
C14
A   15
C15
A   16
C16
A   17
C17
A   18
N19
A   19
C20
A   20
O21
A   21
C22
A   22
C23
A   23
C24
A   24
C32
A   25
C31
A   26
C30
A   27
O29
A   28
C28
A   29
O20
A   30
O27
A   31
C26
A   32
C25
A   33
O24
M  END
>  <Id>  (135) 
1VZQ_SHY_H_1256

>  <ChainId>  (135) 
H

>  <AsymId>  (135) 
D

>  <SeqNum>  (135) 
1256

>  <Name>  (135) 
4-[(3AS,4R,7R,8AS,8BR)-2-(1,3-BENZODIOXOL-5-YLMETHYL)-7-HYDROXY-1,3-DIOXODECAHYDROPYRROLO[3,4-A]PYRROLIZIN-4-YL]BENZENECARBOXIMIDAMIDE

>  <SystematicName>  (135) 
4-[(3aS,4R,5S,7R,8aS,8bR)-2-(1,3-benzodioxol-5-ylmethyl)-7-hydroxy-1,3-dioxo-4,6,7,8,8a,8b-hexahydro-3aH-pyrrolo[3,4-a]pyrrolizin-4-yl]benzenecarboximidamide

>  <Synonyms>  (135) 


>  <Type>  (135) 
NON-POLYMER

>  <Formula>  (135) 
C24 H24 N4 O5

>  <ObservedFormula>  (135) 
C24 N4 O5

>  <MolecularWeight>  (135) 
448.471

>  <ModifiedDate>  (135) 
2011-06-04

>  <Parent>  (135) 


>  <OneLetterCode>  (135) 


>  <SubcomponentList>  (135) 


>  <AmbiguousFlag>  (135) 
N

>  <InsertionCode>  (135) 


>  <InstanceId>  (135) 
1VZQ_SHY_H_1256

>  <ChemCompId>  (135) 
SHY

>  <PdbId>  (135) 
1VZQ

>  <ResidueNumber>  (135) 
1256

>  <InChI>  (135) 
InChI=1S/C24H24N4O5/c25-22(26)14-4-2-13(3-5-14)21-20-19(16-8-15(29)10-27(16)21)23(30)28(24(20)31)9-12-1-6-17-18(7-12)33-11-32-17/h1-7,15-16,19-21,29H,8-11H2,(H3,25,26)/t15-,16+,19+,20+,21+/m1/s1

>  <InChIKey>  (135) 
CETLUACQMGBMFH-ZALSBGIRSA-N

>  <SMILES>  (135) 
[H]/N=C(\c1ccc(cc1)[C@H]2[C@@H]3[C@H]([C@H]4[N@@]2C[C@@H](C4)O)C(=O)N(C3=O)Cc5ccc6c(c5)OCO6)/N

>  <MissingHeavyAtoms>  (135) 
0

>  <Model>  (135) 
1

>  <AltIds>  (135) 


>  <pKI>  (135) 
7.44

>  <ChemblID>  (135) 
-

>  <standardized_canonical_smiles>  (135) 
N=C(N)c1ccc([C@H]2[C@H]3C(=O)N(Cc4ccc5c(c4)OCO5)C(=O)[C@H]3[C@@H]3C[C@@H](O)CN32)cc1

$$$$
2CN0_F25_H_1246
     RDKit          3D

 32 36  0  0  0  0  0  0  0  0999 V2000
   16.8640  -12.8170   22.5650 O   0  0  0  0  0  0  0  0  0  0  0  0
   17.5040  -12.5270   21.6090 C   0  0  0  0  0  0  0  0  0  0  0  0
   18.5480  -13.2810   21.2360 N   0  0  0  0  0  0  0  0  0  0  0  0
   18.9590  -14.5280   21.8740 C   0  0  0  0  0  0  0  0  0  0  0  0
   19.8660  -14.2790   23.0460 C   0  0  0  0  0  0  0  0  0  0  0  0
   21.2520  -14.3560   22.8990 C   0  0  0  0  0  0  0  0  0  0  0  0
   22.1040  -14.1210   23.9650 C   0  0  0  0  0  0  0  0  0  0  0  0
   21.5670  -13.7990   25.1980 C   0  0  0  0  0  0  0  0  0  0  0  0
   22.3660  -13.5660   26.2570 F   0  0  0  0  0  0  0  0  0  0  0  0
   20.1910  -13.7400   25.3730 C   0  0  0  0  0  0  0  0  0  0  0  0
   19.3530  -13.9740   24.3040 C   0  0  0  0  0  0  0  0  0  0  0  0
   19.1150  -12.8730   19.9570 C   0  0  0  0  0  0  0  0  0  0  0  0
   18.1010  -11.8300   19.4410 C   0  0  0  0  0  0  0  0  0  0  0  0
   17.1260  -12.3820   18.4150 C   0  0  0  0  0  0  0  0  0  0  0  0
   15.8050  -12.3240   19.0690 N   0  0  0  0  0  0  0  0  0  0  0  0
   14.7580  -12.0930   18.0530 C   0  0  0  0  0  0  0  0  0  0  0  0
   15.5070  -11.9040   16.7450 C   0  0  0  0  0  0  0  0  0  0  0  0
   16.9620  -11.6310   17.1050 C   0  0  0  0  0  0  0  0  0  0  0  0
   15.8980  -11.2230   20.0560 C   0  0  0  0  0  0  0  0  0  0  0  0
   14.7550  -11.1930   21.0130 C   0  0  0  0  0  0  0  0  0  0  0  0
   13.9990  -12.3070   21.3230 C   0  0  0  0  0  0  0  0  0  0  0  0
   12.9540  -12.2120   22.2370 C   0  0  0  0  0  0  0  0  0  0  0  0
   12.6250  -10.9950   22.8230 C   0  0  0  0  0  0  0  0  0  0  0  0
   13.3740   -9.8900   22.5150 C   0  0  0  0  0  0  0  0  0  0  0  0
   14.4290   -9.9880   21.6120 C   0  0  0  0  0  0  0  0  0  0  0  0
   11.4790  -10.9300   23.7820 C   0  0  0  0  0  0  0  0  0  0  0  0
   10.7000  -11.9880   24.0450 N   0  0  0  0  0  0  0  0  0  0  0  0
   11.1970   -9.8190   24.4400 N   0  0  0  0  0  0  0  0  0  0  0  0
   17.2840  -11.3920   20.6530 C   0  0  0  0  0  0  0  0  0  0  0  0
   20.4810  -12.2370   20.1260 C   0  0  0  0  0  0  0  0  0  0  0  0
   20.9580  -11.8790   18.8940 F   0  0  0  0  0  0  0  0  0  0  0  0
   20.4450  -11.0850   20.8570 F   0  0  0  0  0  0  0  0  0  0  0  0
  2  1  2  0
  3  2  1  0
 29  2  1  0
  4  3  1  0
 12  3  1  0
  5  4  1  0
  6  5  2  0
 11  5  1  0
  7  6  1  0
  8  7  2  0
  9  8  1  0
 10  8  1  0
 11 10  2  0
 13 12  1  0
 30 12  1  0
 14 13  1  0
 29 13  1  0
 15 14  1  0
 18 14  1  0
 16 15  1  0
 19 15  1  0
 17 16  1  0
 18 17  1  0
 20 19  1  0
 29 19  1  0
 21 20  2  0
 25 20  1  0
 22 21  1  0
 23 22  2  0
 24 23  1  0
 26 23  1  0
 25 24  2  0
 27 26  1  0
 28 26  1  0
 31 30  1  0
 32 30  1  0
A    1
O21
A    2
C20
A    3
N19
A    4
C23
A    5
C24
A    6
C32
A    7
C31
A    8
C30
A    9
F29
A   10
C26
A   11
C25
A   12
C17
A   13
C16
A   14
C15
A   15
N11
A   16
C12
A   17
C13
A   18
C14
A   19
C10
A   20
C7
A   21
C8
A   22
C9
A   23
C4
A   24
C5
A   25
C6
A   26
C3
A   27
N1
A   28
N2
A   29
C22
A   30
C18
A   31
F33
A   32
F32
M  END
>  <Id>  (136) 
2CN0_F25_H_1246

>  <ChainId>  (136) 
H

>  <AsymId>  (136) 
D

>  <SeqNum>  (136) 
1246

>  <Name>  (136) 
4-(1R,3AS,4R,8AS,8BR)-[1-DIFLUOROMETHYL-2-(4-FLUOROBENZYL)-3-OXODECAHYDROPYRROLO[3,4-A]PYRROLIZIN-4-YL]BENZAMIDINE

>  <SystematicName>  (136) 
(1S,3aS,4R,5S,8aS,8bR)-4-[4-(diaminomethyl)phenyl]-1-(difluoromethyl)-2-[(4-fluorophenyl)methyl]-1,3a,4,6,7,8,8a,8b-octahydropyrrolo[4,3-a]pyrrolizin-3-one

>  <Synonyms>  (136) 


>  <Type>  (136) 
NON-POLYMER

>  <Formula>  (136) 
C24 H27 F3 N4 O

>  <ObservedFormula>  (136) 
C24 F3 N4 O

>  <MolecularWeight>  (136) 
444.493

>  <ModifiedDate>  (136) 
2011-06-04

>  <Parent>  (136) 


>  <OneLetterCode>  (136) 


>  <SubcomponentList>  (136) 


>  <AmbiguousFlag>  (136) 
N

>  <InsertionCode>  (136) 


>  <InstanceId>  (136) 
2CN0_F25_H_1246

>  <ChemCompId>  (136) 
F25

>  <PdbId>  (136) 
2CN0

>  <ResidueNumber>  (136) 
1246

>  <InChI>  (136) 
InChI=1S/C24H27F3N4O/c25-16-9-3-13(4-10-16)12-31-21(22(26)27)18-17-2-1-11-30(17)20(19(18)24(31)32)14-5-7-15(8-6-14)23(28)29/h3-10,17-23H,1-2,11-12,28-29H2/t17-,18-,19-,20-,21-/m0/s1

>  <InChIKey>  (136) 
VPNYXOTTXAXSIH-SXYSDOLCSA-N

>  <SMILES>  (136) 
c1cc(ccc1CN2[C@@H]([C@H]3[C@@H]4CCC[N@@]4[C@H]([C@H]3C2=O)c5ccc(cc5)C(N)N)C(F)F)F

>  <MissingHeavyAtoms>  (136) 
0

>  <Model>  (136) 
1

>  <AltIds>  (136) 


>  <pKI>  (136) 
7.66

>  <ChemblID>  (136) 
-

>  <standardized_canonical_smiles>  (136) 
NC(N)c1ccc([C@H]2[C@H]3C(=O)N(Cc4ccc(F)cc4)[C@H](C(F)F)[C@H]3[C@@H]3CCCN32)cc1

$$$$
1AHT_APA_H_401
     RDKit          3D

 15 15  0  0  0  0  0  0  0  0999 V2000
   12.8970  -12.5940   20.7410 C   0  0  0  0  0  0  0  0  0  0  0  0
   10.8810  -11.7680   23.9710 C   0  0  0  0  0  0  0  0  0  0  0  0
   11.9680  -12.7520   21.7720 C   0  0  0  0  0  0  0  0  0  0  0  0
   12.6210  -10.6400   22.6810 C   0  0  0  0  0  0  0  0  0  0  0  0
   10.1680  -12.8530   24.2390 N   0  0  0  0  0  0  0  0  0  0  0  0
   16.2500  -10.9640   17.2510 O   0  0  0  0  0  0  0  0  0  0  0  0
   13.5350  -10.5240   21.6420 C   0  0  0  0  0  0  0  0  0  0  0  0
   13.7040  -11.4720   20.6530 C   0  0  0  0  0  0  0  0  0  0  0  0
   14.3770  -11.1770   16.1580 O   0  0  0  0  0  0  0  0  0  0  0  0
   14.9970  -10.8930   17.1980 C   0  0  0  0  0  0  0  0  0  0  0  0
   14.7520  -11.1470   19.5720 C   0  0  0  0  0  0  0  0  0  0  0  0
   14.0670  -10.4430   18.3500 C   0  0  0  0  0  0  0  0  0  0  0  0
   10.6240  -10.6320   24.6310 N   0  0  0  0  0  0  0  0  0  0  0  0
   11.8160  -11.7670   22.7610 C   0  0  0  0  0  0  0  0  0  0  0  0
   12.7450  -10.4300   18.2630 O   0  0  0  0  0  0  0  0  0  0  0  0
 10  9  1  0
  8  1  2  0
 10  6  2  0
  4  7  2  0
 11  8  1  0
  3 14  2  0
 14  2  1  0
 12 11  1  0
  1  3  1  0
 14  4  1  0
  8  7  1  0
  2  5  1  0
  2 13  2  0
 12 15  1  0
 10 12  1  0
A    1
C2'
A    2
C
A    3
C3'
A    4
C5'
A    5
N1
A    6
O1
A    7
C6'
A    8
C1'
A    9
OXT
A   10
C1
A   11
C3
A   12
C2
A   13
N2
A   14
C4'
A   15
O2
M  END
>  <InstanceId>  (137) 
1AHT_APA_H_401

>  <ChemCompId>  (137) 
APA

>  <PdbId>  (137) 
1AHT

>  <ChainId>  (137) 
H

>  <ResidueNumber>  (137) 
401

>  <InsertionCode>  (137) 


>  <Model>  (137) 
1

>  <AltIds>  (137) 


>  <MissingHeavyAtoms>  (137) 
0

>  <ObservedFormula>  (137) 
C10 N2 O3

>  <AsymId>  (137) 
D

>  <SeqNum>  (137) 
401

>  <Name>  (137) 
(2S)-3-(4-carbamimidoylphenyl)-2-hydroxypropanoic acid

>  <SystematicName>  (137) 
(2S)-3-(4-carbamimidoylphenyl)-2-hydroxy-propanoic acid

>  <Synonyms>  (137) 


>  <Type>  (137) 
NON-POLYMER

>  <Formula>  (137) 
C10 H12 N2 O3

>  <MolecularWeight>  (137) 
208.214

>  <ModifiedDate>  (137) 
2011-06-04

>  <Parent>  (137) 


>  <OneLetterCode>  (137) 


>  <SubcomponentList>  (137) 


>  <AmbiguousFlag>  (137) 
N

>  <InChI>  (137) 
null

>  <InChIKey>  (137) 
null

>  <SMILES>  (137) 
[H]/N=C(/c1ccc(cc1)C[C@@H](C(=O)O)O)\N

>  <pKI>  (137) 
6.21

>  <ChemblID>  (137) 
-

>  <standardized_canonical_smiles>  (137) 
N=C(N)c1ccc(C[C@H](O)C(=O)O)cc1

$$$$
4BAO_MVF_B_1287
     RDKit          3D

 31 33  0  0  0  0  0  0  0  0999 V2000
   18.8260  -14.4920   24.2160 C   0  0  0  0  0  0  0  0  0  0  0  0
   18.9260  -15.7910   25.0380 C   0  0  0  0  0  0  0  0  0  0  0  0
   19.4630  -15.4470   26.4360 C   0  0  0  0  0  0  0  0  0  0  0  0
   20.8600  -14.8050   26.3340 C   0  0  0  0  0  0  0  0  0  0  0  0
   20.7940  -13.4950   25.5410 C   0  0  0  0  0  0  0  0  0  0  0  0
   20.2040  -13.7840   24.1440 C   0  0  0  0  0  0  0  0  0  0  0  0
   16.9740  -15.5260   22.8620 N   0  0  0  0  0  0  0  0  0  0  0  0
   18.2640  -14.7820   22.8100 C   0  0  0  0  0  0  0  0  0  0  0  0
   17.9860  -13.4590   22.1550 C   0  0  0  0  0  0  0  0  0  0  0  0
   16.9690  -12.8750   22.4850 O   0  0  0  0  0  0  0  0  0  0  0  0
   18.7990  -12.9000   21.2270 N   0  0  0  0  0  0  0  0  0  0  0  0
   18.6330  -11.7020   20.3900 C   0  0  0  0  0  0  0  0  0  0  0  0
   17.2430  -11.8200   19.8070 C   0  0  0  0  0  0  0  0  0  0  0  0
   16.9390  -12.8630   19.2540 O   0  0  0  0  0  0  0  0  0  0  0  0
   16.3140  -10.8710   20.0530 N   0  0  0  0  0  0  0  0  0  0  0  0
   14.9510  -11.0570   19.5600 C   0  0  0  0  0  0  0  0  0  0  0  0
   13.9780  -11.0110   20.7090 C   0  0  0  0  0  0  0  0  0  0  0  0
   13.6590  -12.1700   21.4040 C   0  0  0  0  0  0  0  0  0  0  0  0
   12.7390  -12.1230   22.4440 C   0  0  0  0  0  0  0  0  0  0  0  0
   12.1560  -10.8880   22.8020 C   0  0  0  0  0  0  0  0  0  0  0  0
   12.5010   -9.7210   22.0970 C   0  0  0  0  0  0  0  0  0  0  0  0
   13.4130   -9.7910   21.0600 C   0  0  0  0  0  0  0  0  0  0  0  0
   11.1650  -10.8050   23.9070 C   0  0  0  0  0  0  0  0  0  0  0  0
   10.4330  -11.9160   24.2990 N   0  0  0  0  0  0  0  0  0  0  0  0
   10.9450   -9.6670   24.5050 N   0  0  0  0  0  0  0  0  0  0  0  0
   19.7940  -12.1380   19.4720 C   0  0  0  0  0  0  0  0  0  0  0  0
   20.0340  -13.2510   20.4970 C   0  0  0  0  0  0  0  0  0  0  0  0
   16.3960  -15.9280   21.5510 C   0  0  0  0  0  0  0  0  0  0  0  0
   14.9570  -16.3940   21.6930 C   0  0  0  0  0  0  0  0  0  0  0  0
   14.3610  -16.3550   22.7550 O   0  0  0  0  0  0  0  0  0  0  0  0
   14.3000  -16.8850   20.6250 N   0  0  0  0  0  0  0  0  0  0  0  0
  2  1  1  0
  6  1  1  0
  8  1  1  0
  3  2  1  0
  4  3  1  0
  5  4  1  0
  6  5  1  0
  8  7  1  0
 28  7  1  0
  9  8  1  0
 10  9  2  0
 11  9  1  0
 12 11  1  0
 27 11  1  0
 13 12  1  0
 26 12  1  0
 14 13  2  0
 15 13  1  0
 16 15  1  0
 17 16  1  0
 18 17  2  0
 22 17  1  0
 19 18  1  0
 20 19  2  0
 21 20  1  0
 23 20  1  0
 22 21  2  0
 24 23  1  0
 25 23  2  0
 27 26  1  0
 29 28  1  0
 30 29  2  0
 31 29  1  0
A    1
C1
A    2
C2
A    3
C3
A    4
C4
A    5
C5
A    6
C6
A    7
N7
A    8
C8
A    9
C9
A   10
O0
A   11
N11
A   12
C12
A   13
C13
A   14
O14
A   15
N15
A   16
C16
A   17
C17
A   18
C22
A   19
C21
A   20
C20
A   21
C19
A   22
C18
A   23
C23
A   24
N25
A   25
N24
A   26
C26
A   27
C27
A   28
C28
A   29
C29
A   30
O30
A   31
N30
M  END
>  <Id>  (138) 
4BAO_MVF_B_1287

>  <ChainId>  (138) 
B

>  <AsymId>  (138) 
F

>  <SeqNum>  (138) 
1287

>  <Name>  (138) 
(2S)-1-[(2R)-2-[(2-azanyl-2-oxidanylidene-ethyl)amino]-2-cyclohexyl-ethanoyl]-N-[(4-carbamimidoylphenyl)methyl]azetidine-2-carboxamide

>  <SystematicName>  (138) 
(2S)-1-[(2R)-2-[(2-azanyl-2-oxidanylidene-ethyl)amino]-2-cyclohexyl-ethanoyl]-N-[(4-carbamimidoylphenyl)methyl]azetidine-2-carboxamide

>  <Synonyms>  (138) 


>  <Type>  (138) 
non-polymer

>  <Formula>  (138) 
C22 H32 N6 O3

>  <ObservedFormula>  (138) 
C22 N6 O3

>  <MolecularWeight>  (138) 
428.528

>  <ModifiedDate>  (138) 
2014-09-05

>  <Parent>  (138) 


>  <OneLetterCode>  (138) 


>  <SubcomponentList>  (138) 


>  <AmbiguousFlag>  (138) 
N

>  <InsertionCode>  (138) 


>  <InstanceId>  (138) 
4BAO_MVF_B_1287

>  <ChemCompId>  (138) 
MVF

>  <PdbId>  (138) 
4BAO

>  <ResidueNumber>  (138) 
1287

>  <InChI>  (138) 
InChI=1S/C22H32N6O3/c23-18(29)13-26-19(15-4-2-1-3-5-15)22(31)28-11-10-17(28)21(30)27-12-14-6-8-16(9-7-14)20(24)25/h6-9,15,17,19,26H,1-5,10-13H2,(H2,23,29)(H3,24,25)(H,27,30)/t17-,19+/m0/s1

>  <InChIKey>  (138) 
HGGAEWPXSYIPSZ-PKOBYXMFSA-N

>  <SMILES>  (138) 
[H]/N=C(/c1ccc(cc1)CNC(=O)[C@@H]2CCN2C(=O)[C@@H](C3CCCCC3)NCC(=O)N)\N

>  <MissingHeavyAtoms>  (138) 
0

>  <Model>  (138) 
1

>  <AltIds>  (138) 


>  <pKI>  (138) 
8.37

>  <ChemblID>  (138) 
-

>  <standardized_canonical_smiles>  (138) 
N=C(N)c1ccc(CNC(=O)[C@@H]2CCN2C(=O)[C@H](NCC(N)=O)C2CCCCC2)cc1

$$$$
1GJ4_132_H_410
     RDKit          3D

 26 29  0  0  0  0  0  0  0  0999 V2000
   11.5230  -11.6140   23.3600 C   0  0  0  0  0  0  0  0  0  0  0  0
   12.1890  -10.3760   23.1510 C   0  0  0  0  0  0  0  0  0  0  0  0
   13.1160  -10.2800   22.0900 C   0  0  0  0  0  0  0  0  0  0  0  0
   13.3210  -11.3760   21.2570 C   0  0  0  0  0  0  0  0  0  0  0  0
   12.6510  -12.5330   21.4660 C   0  0  0  0  0  0  0  0  0  0  0  0
   11.7400  -12.6810   22.4710 C   0  0  0  0  0  0  0  0  0  0  0  0
   10.5960  -11.8030   24.3840 C   0  0  0  0  0  0  0  0  0  0  0  0
   10.0340  -12.9760   24.5380 N   0  0  0  0  0  0  0  0  0  0  0  0
   10.3000  -10.8390   25.2200 N   0  0  0  0  0  0  0  0  0  0  0  0
   14.0960  -11.5480   20.2040 N   0  0  0  0  0  0  0  0  0  0  0  0
   13.0310  -13.4250   20.5170 C   0  0  0  0  0  0  0  0  0  0  0  0
   13.9790  -12.7650   19.7410 C   0  0  0  0  0  0  0  0  0  0  0  0
   14.6960  -13.2910   18.6550 C   0  0  0  0  0  0  0  0  0  0  0  0
   14.5530  -14.6550   18.3570 C   0  0  0  0  0  0  0  0  0  0  0  0
   15.2700  -15.2620   17.3340 C   0  0  0  0  0  0  0  0  0  0  0  0
   16.1340  -14.5180   16.5750 C   0  0  0  0  0  0  0  0  0  0  0  0
   16.3170  -13.1620   16.8250 C   0  0  0  0  0  0  0  0  0  0  0  0
   15.5920  -12.5090   17.8800 C   0  0  0  0  0  0  0  0  0  0  0  0
   15.7540  -11.1520   18.1660 O   0  0  0  0  0  0  0  0  0  0  0  0
   17.2420  -12.4990   16.0310 C   0  0  0  0  0  0  0  0  0  0  0  0
   16.8520  -11.4180   15.2550 C   0  0  0  0  0  0  0  0  0  0  0  0
   17.7500  -10.7440   14.4850 C   0  0  0  0  0  0  0  0  0  0  0  0
   18.9790  -11.1040   14.5090 C   0  0  0  0  0  0  0  0  0  0  0  0
   19.4800  -12.2590   15.2260 C   0  0  0  0  0  0  0  0  0  0  0  0
   18.5800  -12.9370   15.9860 C   0  0  0  0  0  0  0  0  0  0  0  0
   11.9940   -8.9580   24.2310 Cl  0  0  0  0  0  0  0  0  0  0  0  0
  2  1  2  0
  6  1  1  0
  7  1  1  0
  3  2  1  0
 26  2  1  0
  4  3  2  0
  5  4  1  0
 10  4  1  0
  6  5  2  0
 11  5  1  0
  8  7  1  0
  9  7  2  0
 12 10  1  0
 12 11  2  0
 13 12  1  0
 14 13  2  0
 18 13  1  0
 15 14  1  0
 16 15  2  0
 17 16  1  0
 18 17  2  0
 20 17  1  0
 19 18  1  0
 21 20  2  0
 25 20  1  0
 22 21  1  0
 23 22  2  0
 24 23  1  0
 25 24  2  0
M  CHG  1   9   1
A    1
C1
A    2
C2
A    3
C3
A    4
C4
A    5
C5
A    6
C6
A    7
C7
A    8
N1
A    9
N2
A   10
N3
A   11
C9
A   12
C8
A   13
C1'
A   14
C2'
A   15
C3'
A   16
C4'
A   17
C5'
A   18
C6'
A   19
O6'
A   20
C1B
A   21
C2B
A   22
C3B
A   23
C4B
A   24
C5B
A   25
C6B
A   26
CL2
M  END
>  <Id>  (139) 
1GJ4_132_H_410

>  <ChainId>  (139) 
H

>  <AsymId>  (139) 
E

>  <SeqNum>  (139) 
410

>  <Name>  (139) 
6-CHLORO-2-(2-HYDROXY-BIPHENYL-3-YL)-1H-INDOLE-5-CARBOXAMIDINE

>  <SystematicName>  (139) 
[amino-[6-chloro-2-(2-hydroxy-3-phenyl-phenyl)-1H-indol-5-yl]methylidene]azanium

>  <Synonyms>  (139) 


>  <Type>  (139) 
NON-POLYMER

>  <Formula>  (139) 
C21 H17 Cl N3 O

>  <ObservedFormula>  (139) 
C21 Cl N3 O

>  <MolecularWeight>  (139) 
362.832

>  <ModifiedDate>  (139) 
2011-06-04

>  <Parent>  (139) 


>  <OneLetterCode>  (139) 


>  <SubcomponentList>  (139) 


>  <AmbiguousFlag>  (139) 
N

>  <InsertionCode>  (139) 


>  <InstanceId>  (139) 
1GJ4_132_H_410

>  <ChemCompId>  (139) 
132

>  <PdbId>  (139) 
1GJ4

>  <ResidueNumber>  (139) 
410

>  <InChI>  (139) 
InChI=1S/C21H16ClN3O/c22-17-11-18-13(9-16(17)21(23)24)10-19(25-18)15-8-4-7-14(20(15)26)12-5-2-1-3-6-12/h1-11,25-26H,(H3,23,24)/p+1

>  <InChIKey>  (139) 
FEKRWNWZMOSVBX-UHFFFAOYSA-O

>  <SMILES>  (139) 
c1ccc(cc1)c2cccc(c2O)c3cc4cc(c(cc4[nH]3)Cl)C(=[NH2+])N

>  <MissingHeavyAtoms>  (139) 
0

>  <Model>  (139) 
1

>  <AltIds>  (139) 


>  <pKI>  (139) 
4.11

>  <ChemblID>  (139) 
-

>  <standardized_canonical_smiles>  (139) 
NC(=[NH2+])c1cc2cc(-c3cccc(-c4ccccc4)c3O)[nH]c2cc1Cl

$$$$
1C5N_ESI_H_522
     RDKit          3D

 13 14  0  0  0  0  0  0  0  0999 V2000
   10.8040  -12.0750   24.5260 C   0  0  0  0  0  0  0  0  0  0  0  0
   11.6090  -12.2200   23.4780 C   0  0  0  0  0  0  0  0  0  0  0  0
   10.1720  -13.1280   24.9620 N   0  0  0  0  0  0  0  0  0  0  0  0
   10.7500  -10.8640   25.0200 N   0  0  0  0  0  0  0  0  0  0  0  0
   12.4820  -10.7990   22.8680 S   0  0  0  0  0  0  0  0  0  0  0  0
   13.2420  -11.7990   21.6210 C   0  0  0  0  0  0  0  0  0  0  0  0
   12.8000  -13.1180   21.7330 C   0  0  0  0  0  0  0  0  0  0  0  0
   11.9090  -13.3260   22.7520 C   0  0  0  0  0  0  0  0  0  0  0  0
   14.1420  -11.3940   20.6610 C   0  0  0  0  0  0  0  0  0  0  0  0
   14.6270  -12.3380   19.7670 C   0  0  0  0  0  0  0  0  0  0  0  0
   14.2030  -13.6740   19.8480 C   0  0  0  0  0  0  0  0  0  0  0  0
   13.2780  -14.0870   20.8320 C   0  0  0  0  0  0  0  0  0  0  0  0
   12.5840  -16.0470   20.9790 I   0  0  0  0  0  0  0  0  0  0  0  0
  2  1  1  0
  3  1  1  0
  4  1  2  0
  5  2  1  0
  8  2  2  0
  6  5  1  0
  7  6  2  0
  9  6  1  0
  8  7  1  0
 12  7  1  0
 10  9  2  0
 11 10  1  0
 12 11  2  0
 13 12  1  0
M  CHG  1   4   1
A    1
C0
A    2
C1
A    3
N1
A    4
N2
A    5
S2
A    6
C3
A    7
C4
A    8
C5
A    9
C6
A   10
C7
A   11
C8
A   12
C9
A   13
I9
M  END
>  <Id>  (140) 
1C5N_ESI_H_522

>  <ChainId>  (140) 
H

>  <AsymId>  (140) 
F

>  <SeqNum>  (140) 
522

>  <Name>  (140) 
4-IODOBENZO[B]THIOPHENE-2-CARBOXAMIDINE

>  <SystematicName>  (140) 
[amino-(4-iodo-1-benzothiophen-2-yl)methylidene]azanium

>  <Synonyms>  (140) 


>  <Type>  (140) 
NON-POLYMER

>  <Formula>  (140) 
C9 H8 I N2 S

>  <ObservedFormula>  (140) 
C9 S I N2

>  <MolecularWeight>  (140) 
303.143

>  <ModifiedDate>  (140) 
2011-06-04

>  <Parent>  (140) 


>  <OneLetterCode>  (140) 


>  <SubcomponentList>  (140) 


>  <AmbiguousFlag>  (140) 
N

>  <InsertionCode>  (140) 


>  <InstanceId>  (140) 
1C5N_ESI_H_522

>  <ChemCompId>  (140) 
ESI

>  <PdbId>  (140) 
1C5N

>  <ResidueNumber>  (140) 
522

>  <InChI>  (140) 
InChI=1S/C9H7IN2S/c10-6-2-1-3-7-5(6)4-8(13-7)9(11)12/h1-4H,(H3,11,12)/p+1

>  <InChIKey>  (140) 
YERQOXAYAFWFEJ-UHFFFAOYSA-O

>  <SMILES>  (140) 
c1cc2c(cc(s2)C(=[NH2+])N)c(c1)I

>  <MissingHeavyAtoms>  (140) 
0

>  <Model>  (140) 
1

>  <AltIds>  (140) 


>  <pKI>  (140) 
4.7

>  <ChemblID>  (140) 
-

>  <standardized_canonical_smiles>  (140) 
NC(=[NH2+])c1cc2c(I)cccc2s1

$$$$
1C1V_BAB_H_410
     RDKit          3D

 25 28  0  0  0  0  0  0  0  0999 V2000
   12.1640  -11.7770   22.9800 C   0  0  0  0  0  0  0  0  0  0  0  0
   12.5660  -10.6550   22.2230 C   0  0  0  0  0  0  0  0  0  0  0  0
   13.6090  -10.7610   21.2660 C   0  0  0  0  0  0  0  0  0  0  0  0
   14.1930  -12.0100   21.1190 C   0  0  0  0  0  0  0  0  0  0  0  0
   13.7970  -13.0620   21.8470 C   0  0  0  0  0  0  0  0  0  0  0  0
   12.8100  -13.0040   22.7690 C   0  0  0  0  0  0  0  0  0  0  0  0
   11.1770  -11.7600   23.9320 C   0  0  0  0  0  0  0  0  0  0  0  0
   15.3430  -13.7390   20.5970 C   0  0  0  0  0  0  0  0  0  0  0  0
   16.4040  -14.7280   19.9320 C   0  0  0  0  0  0  0  0  0  0  0  0
   10.4850  -12.8530   24.0440 N   0  0  0  0  0  0  0  0  0  0  0  0
   10.9930  -10.7000   24.6810 N   0  0  0  0  0  0  0  0  0  0  0  0
   15.1600  -12.4460   20.3430 N   0  0  0  0  0  0  0  0  0  0  0  0
   14.4980  -14.1150   21.5260 N   0  0  0  0  0  0  0  0  0  0  0  0
   16.6910  -13.0370   14.2030 C   0  0  0  0  0  0  0  0  0  0  0  0
   17.2910  -11.9340   14.8800 C   0  0  0  0  0  0  0  0  0  0  0  0
   17.4830  -11.9150   16.2530 C   0  0  0  0  0  0  0  0  0  0  0  0
   17.0610  -13.0210   16.9290 C   0  0  0  0  0  0  0  0  0  0  0  0
   16.4840  -14.1050   16.3550 C   0  0  0  0  0  0  0  0  0  0  0  0
   16.2780  -14.1630   14.9870 C   0  0  0  0  0  0  0  0  0  0  0  0
   16.5080  -12.9750   12.8200 C   0  0  0  0  0  0  0  0  0  0  0  0
   16.5740  -14.3440   18.4490 C   0  0  0  0  0  0  0  0  0  0  0  0
   16.1700  -14.0620   12.1630 N   0  0  0  0  0  0  0  0  0  0  0  0
   16.6580  -11.8150   12.2100 N   0  0  0  0  0  0  0  0  0  0  0  0
   17.1100  -13.1940   18.2100 N   0  0  0  0  0  0  0  0  0  0  0  0
   16.1850  -14.9370   17.3350 N   0  0  0  0  0  0  0  0  0  0  0  0
  2  1  2  0
  6  1  1  0
  7  1  1  0
  3  2  1  0
  4  3  2  0
  5  4  1  0
 12  4  1  0
  6  5  2  0
 13  5  1  0
 10  7  2  0
 11  7  1  0
  9  8  1  0
 12  8  2  0
 13  8  1  0
 21  9  1  0
 15 14  2  0
 19 14  1  0
 20 14  1  0
 16 15  1  0
 17 16  2  0
 18 17  1  0
 24 17  1  0
 19 18  2  0
 25 18  1  0
 22 20  2  0
 23 20  1  0
 24 21  2  0
 25 21  1  0
M  CHG  3  10   1  22   1  24   1
A    1
C1
A    2
C2
A    3
C3
A    4
C4
A    5
C5
A    6
C6
A    7
C7
A    8
C8
A    9
C9
A   10
N1
A   11
N2
A   12
N3
A   13
N4
A   14
C1'
A   15
C2'
A   16
C3'
A   17
C4'
A   18
C5'
A   19
C6'
A   20
C7'
A   21
C8'
A   22
N1'
A   23
N2'
A   24
N3'
A   25
N4'
M  END
>  <Id>  (141) 
1C1V_BAB_H_410

>  <ChainId>  (141) 
H

>  <AsymId>  (141) 
G

>  <SeqNum>  (141) 
410

>  <Name>  (141) 
BIS(5-AMIDINO-BENZIMIDAZOLYL)METHANE

>  <SystematicName>  (141) 
[amino-[2-[[6-(amino-azaniumylidene-methyl)-1H-benzimidazol-3-ium-2-yl]methyl]-3H-benzimidazol-5-yl]methylidene]azanium

>  <Synonyms>  (141) 


>  <Type>  (141) 
NON-POLYMER

>  <Formula>  (141) 
C17 H19 N8

>  <ObservedFormula>  (141) 
C17 N8

>  <MolecularWeight>  (141) 
335.386

>  <ModifiedDate>  (141) 
2011-06-04

>  <Parent>  (141) 


>  <OneLetterCode>  (141) 


>  <SubcomponentList>  (141) 


>  <AmbiguousFlag>  (141) 
N

>  <InsertionCode>  (141) 


>  <InstanceId>  (141) 
1C1V_BAB_H_410

>  <ChemCompId>  (141) 
BAB

>  <PdbId>  (141) 
1C1V

>  <ResidueNumber>  (141) 
410

>  <InChI>  (141) 
InChI=1S/C17H16N8/c18-16(19)8-1-3-10-12(5-8)24-14(22-10)7-15-23-11-4-2-9(17(20)21)6-13(11)25-15/h1-6H,7H2,(H3,18,19)(H3,20,21)(H,22,24)(H,23,25)/p+3

>  <InChIKey>  (141) 
QZKOOEFIMWKZPK-UHFFFAOYSA-Q

>  <SMILES>  (141) 
c1cc2c(cc1C(=[NH2+])N)[nH]c([nH+]2)Cc3[nH]c4cc(ccc4n3)C(=[NH2+])N

>  <MissingHeavyAtoms>  (141) 
0

>  <Model>  (141) 
1

>  <AltIds>  (141) 


>  <pKI>  (141) 
7.64

>  <ChemblID>  (141) 
-

>  <standardized_canonical_smiles>  (141) 
NC(=[NH2+])c1ccc2nc(Cc3[nH]c4cc(C(N)=[NH2+])ccc4[nH+]3)[nH]c2c1

$$$$
1GHV_120_H_246
     RDKit          3D

 19 21  0  0  0  0  0  0  0  0999 V2000
   11.8160  -11.7880   22.9290 C   0  0  0  0  0  0  0  0  0  0  0  0
   12.3380  -10.5140   22.5970 C   0  0  0  0  0  0  0  0  0  0  0  0
   13.2450  -10.3690   21.5590 C   0  0  0  0  0  0  0  0  0  0  0  0
   13.5950  -11.5020   20.8900 C   0  0  0  0  0  0  0  0  0  0  0  0
   13.1270  -12.7400   21.1680 C   0  0  0  0  0  0  0  0  0  0  0  0
   12.2210  -12.9280   22.1960 C   0  0  0  0  0  0  0  0  0  0  0  0
   10.9220  -11.9140   23.9730 C   0  0  0  0  0  0  0  0  0  0  0  0
   10.2600  -13.0300   24.0920 N   0  0  0  0  0  0  0  0  0  0  0  0
   10.7710  -10.9130   24.8170 N   0  0  0  0  0  0  0  0  0  0  0  0
   14.3940  -11.6540   19.9230 N   0  0  0  0  0  0  0  0  0  0  0  0
   13.6190  -13.6650   20.3810 N   0  0  0  0  0  0  0  0  0  0  0  0
   14.4070  -12.9200   19.6150 C   0  0  0  0  0  0  0  0  0  0  0  0
   15.1520  -13.4170   18.5520 C   0  0  0  0  0  0  0  0  0  0  0  0
   14.9440  -14.7360   18.1510 C   0  0  0  0  0  0  0  0  0  0  0  0
   15.6750  -15.2340   17.0950 C   0  0  0  0  0  0  0  0  0  0  0  0
   16.5960  -14.4010   16.4620 C   0  0  0  0  0  0  0  0  0  0  0  0
   16.7800  -13.1550   16.8550 N   0  0  0  0  0  0  0  0  0  0  0  0
   16.1130  -12.6250   17.8570 C   0  0  0  0  0  0  0  0  0  0  0  0
   16.3280  -11.4690   18.1790 O   0  0  0  0  0  0  0  0  0  0  0  0
  2  1  2  0
  6  1  1  0
  7  1  1  0
  3  2  1  0
  4  3  2  0
  5  4  1  0
 10  4  1  0
  6  5  2  0
 11  5  1  0
  8  7  1  0
  9  7  2  0
 12 10  1  0
 12 11  2  0
 13 12  1  0
 14 13  2  0
 18 13  1  0
 15 14  1  0
 16 15  2  0
 17 16  1  0
 18 17  1  0
 19 18  2  0
M  CHG  1   9   1
A    1
C1
A    2
C2
A    3
C3
A    4
C4
A    5
C5
A    6
C6
A    7
C7
A    8
N1
A    9
N2
A   10
N3
A   11
N4
A   12
C8
A   13
C1'
A   14
C2'
A   15
C3'
A   16
C4'
A   17
N5'
A   18
C6'
A   19
O6'
M  END
>  <Id>  (142) 
1GHV_120_H_246

>  <ChainId>  (142) 
H

>  <AsymId>  (142) 
E

>  <SeqNum>  (142) 
246

>  <Name>  (142) 
2-(2-OXO-1,2-DIHYDRO-PYRIDIN-3-YL)-1H-BENZOIMIDAZOLE-5-CARBOXAMIDINE

>  <SystematicName>  (142) 
[amino-[2-(2-oxo-1H-pyridin-3-yl)-1H-benzimidazol-5-yl]methylidene]azanium

>  <Synonyms>  (142) 


>  <Type>  (142) 
NON-POLYMER

>  <Formula>  (142) 
C13 H12 N5 O

>  <ObservedFormula>  (142) 
C13 N5 O

>  <MolecularWeight>  (142) 
254.267

>  <ModifiedDate>  (142) 
2011-06-04

>  <Parent>  (142) 


>  <OneLetterCode>  (142) 


>  <SubcomponentList>  (142) 


>  <AmbiguousFlag>  (142) 
N

>  <InsertionCode>  (142) 


>  <InstanceId>  (142) 
1GHV_120_H_246

>  <ChemCompId>  (142) 
120

>  <PdbId>  (142) 
1GHV

>  <ResidueNumber>  (142) 
246

>  <InChI>  (142) 
InChI=1S/C13H11N5O/c14-11(15)7-3-4-9-10(6-7)18-12(17-9)8-2-1-5-16-13(8)19/h1-6H,(H3,14,15)(H,16,19)(H,17,18)/p+1

>  <InChIKey>  (142) 
PUOKYJMONGPAIM-UHFFFAOYSA-O

>  <SMILES>  (142) 
c1cc2c(cc1C(=[NH2+])N)nc([nH]2)C3=CC=CNC3=O

>  <MissingHeavyAtoms>  (142) 
0

>  <Model>  (142) 
1

>  <AltIds>  (142) 


>  <pKI>  (142) 
4.35

>  <ChemblID>  (142) 
-

>  <standardized_canonical_smiles>  (142) 
NC(=[NH2+])c1ccc2[nH]c(-c3ccc[nH]c3=O)nc2c1

$$$$
1GHY_121_H_246
     RDKit          3D

 19 21  0  0  0  0  0  0  0  0999 V2000
   12.1290  -11.7940   22.8500 C   0  0  0  0  0  0  0  0  0  0  0  0
   12.1340  -10.7030   21.9600 C   0  0  0  0  0  0  0  0  0  0  0  0
   13.0630  -10.6080   20.9460 C   0  0  0  0  0  0  0  0  0  0  0  0
   13.9750  -11.6260   20.8300 C   0  0  0  0  0  0  0  0  0  0  0  0
   13.9850  -12.6930   21.6780 C   0  0  0  0  0  0  0  0  0  0  0  0
   13.0700  -12.8160   22.7070 C   0  0  0  0  0  0  0  0  0  0  0  0
   11.2050  -11.8130   23.8750 C   0  0  0  0  0  0  0  0  0  0  0  0
   10.5580  -12.8920   24.1770 N   0  0  0  0  0  0  0  0  0  0  0  0
   11.0250  -10.6920   24.5390 N   0  0  0  0  0  0  0  0  0  0  0  0
   14.9670  -11.7520   20.0020 N   0  0  0  0  0  0  0  0  0  0  0  0
   14.9880  -13.4550   21.3550 N   0  0  0  0  0  0  0  0  0  0  0  0
   15.5810  -12.8680   20.3340 C   0  0  0  0  0  0  0  0  0  0  0  0
   16.7500  -13.3560   19.7150 C   0  0  0  0  0  0  0  0  0  0  0  0
   17.5630  -14.0260   20.5190 N   0  0  0  0  0  0  0  0  0  0  0  0
   18.7250  -14.5340   20.1550 C   0  0  0  0  0  0  0  0  0  0  0  0
   19.1630  -14.3720   18.8460 C   0  0  0  0  0  0  0  0  0  0  0  0
   18.3540  -13.6700   17.9400 C   0  0  0  0  0  0  0  0  0  0  0  0
   17.1250  -13.1490   18.3620 C   0  0  0  0  0  0  0  0  0  0  0  0
   16.3480  -12.4580   17.4410 O   0  0  0  0  0  0  0  0  0  0  0  0
  2  1  2  0
  6  1  1  0
  7  1  1  0
  3  2  1  0
  4  3  2  0
  5  4  1  0
 10  4  1  0
  6  5  2  0
 11  5  1  0
  8  7  1  0
  9  7  2  0
 12 10  1  0
 12 11  2  0
 13 12  1  0
 14 13  2  0
 18 13  1  0
 15 14  1  0
 16 15  2  0
 17 16  1  0
 18 17  2  0
 19 18  1  0
M  CHG  1   9   1
A    1
C1
A    2
C2
A    3
C3
A    4
C4
A    5
C5
A    6
C6
A    7
C7
A    8
N1
A    9
N2
A   10
N3
A   11
N4
A   12
C8
A   13
C1'
A   14
N2'
A   15
C3'
A   16
C4'
A   17
C5'
A   18
C6'
A   19
O6'
M  END
>  <Id>  (143) 
1GHY_121_H_246

>  <ChainId>  (143) 
H

>  <AsymId>  (143) 
I

>  <SeqNum>  (143) 
246

>  <Name>  (143) 
2-(3-HYDROXY-PYRIDIN-2-YL)-1H-BENZOIMIDAZOLE-5-CARBOXAMIDINE

>  <SystematicName>  (143) 
[amino-[2-(3-hydroxypyridin-2-yl)-1H-benzimidazol-5-yl]methylidene]azanium

>  <Synonyms>  (143) 


>  <Type>  (143) 
NON-POLYMER

>  <Formula>  (143) 
C13 H12 N5 O

>  <ObservedFormula>  (143) 
C13 N5 O

>  <MolecularWeight>  (143) 
254.267

>  <ModifiedDate>  (143) 
2011-06-04

>  <Parent>  (143) 


>  <OneLetterCode>  (143) 


>  <SubcomponentList>  (143) 


>  <AmbiguousFlag>  (143) 
N

>  <InsertionCode>  (143) 


>  <InstanceId>  (143) 
1GHY_121_H_246

>  <ChemCompId>  (143) 
121

>  <PdbId>  (143) 
1GHY

>  <ResidueNumber>  (143) 
246

>  <InChI>  (143) 
InChI=1S/C13H11N5O/c14-12(15)7-3-4-8-9(6-7)18-13(17-8)11-10(19)2-1-5-16-11/h1-6,19H,(H3,14,15)(H,17,18)/p+1

>  <InChIKey>  (143) 
FQCDQFDJHSXQKY-UHFFFAOYSA-O

>  <SMILES>  (143) 
c1cc(c(nc1)c2[nH]c3ccc(cc3n2)C(=[NH2+])N)O

>  <MissingHeavyAtoms>  (143) 
0

>  <Model>  (143) 
1

>  <AltIds>  (143) 


>  <pKI>  (143) 
8.1

>  <ChemblID>  (143) 
-

>  <standardized_canonical_smiles>  (143) 
NC(=[NH2+])c1ccc2[nH]c(-c3ncccc3O)nc2c1

$$$$
1OYT_FSN_H_501
     RDKit          3D

 30 34  0  0  0  0  0  0  0  0999 V2000
   16.6950  -12.8160   22.7290 O   0  0  0  0  0  0  0  0  0  0  0  0
   17.4090  -12.5450   21.7800 C   0  0  0  0  0  0  0  0  0  0  0  0
   18.5310  -13.3290   21.4300 N   0  0  0  0  0  0  0  0  0  0  0  0
   18.8670  -14.5430   22.1730 C   0  0  0  0  0  0  0  0  0  0  0  0
   19.7880  -14.2110   23.3150 C   0  0  0  0  0  0  0  0  0  0  0  0
   19.2510  -14.0800   24.6100 C   0  0  0  0  0  0  0  0  0  0  0  0
   20.1060  -13.8060   25.6770 C   0  0  0  0  0  0  0  0  0  0  0  0
   21.4750  -13.6670   25.4130 C   0  0  0  0  0  0  0  0  0  0  0  0
   22.2470  -13.4240   26.4870 F   0  0  0  0  0  0  0  0  0  0  0  0
   22.0580  -13.7740   24.1420 C   0  0  0  0  0  0  0  0  0  0  0  0
   21.1740  -14.0520   23.0690 C   0  0  0  0  0  0  0  0  0  0  0  0
   19.0640  -12.9060   20.1780 C   0  0  0  0  0  0  0  0  0  0  0  0
   20.0420  -13.3920   19.6320 O   0  0  0  0  0  0  0  0  0  0  0  0
   18.2450  -11.8120   19.6630 C   0  0  0  0  0  0  0  0  0  0  0  0
   17.2170  -12.1980   18.6000 C   0  0  0  0  0  0  0  0  0  0  0  0
   15.7990  -12.4400   19.1400 N   0  0  0  0  0  0  0  0  0  0  0  0
   14.9690  -11.9970   17.9830 C   0  0  0  0  0  0  0  0  0  0  0  0
   15.8910  -12.1930   16.7360 C   0  0  0  0  0  0  0  0  0  0  0  0
   17.2510  -11.6720   17.2230 C   0  0  0  0  0  0  0  0  0  0  0  0
   15.8630  -11.3370   20.1940 C   0  0  0  0  0  0  0  0  0  0  0  0
   14.6700  -11.2040   21.0920 C   0  0  0  0  0  0  0  0  0  0  0  0
   13.9280  -12.3500   21.3610 C   0  0  0  0  0  0  0  0  0  0  0  0
   12.8510  -12.2910   22.2350 C   0  0  0  0  0  0  0  0  0  0  0  0
   12.5240  -11.0440   22.8370 C   0  0  0  0  0  0  0  0  0  0  0  0
   13.2700   -9.8900   22.5730 C   0  0  0  0  0  0  0  0  0  0  0  0
   14.3560   -9.9610   21.6950 C   0  0  0  0  0  0  0  0  0  0  0  0
   11.3830  -11.0010   23.7370 C   0  0  0  0  0  0  0  0  0  0  0  0
   10.5520  -12.0640   23.8870 N   0  0  0  0  0  0  0  0  0  0  0  0
   11.0790   -9.9100   24.4850 N   0  0  0  0  0  0  0  0  0  0  0  0
   17.2470  -11.4430   20.8070 C   0  0  0  0  0  0  0  0  0  0  0  0
  2  1  2  0
  3  2  1  0
 30  2  1  0
  4  3  1  0
 12  3  1  0
  5  4  1  0
  6  5  2  0
 11  5  1  0
  7  6  1  0
  8  7  2  0
  9  8  1  0
 10  8  1  0
 11 10  2  0
 13 12  2  0
 14 12  1  0
 15 14  1  0
 30 14  1  0
 16 15  1  0
 19 15  1  0
 17 16  1  0
 20 16  1  0
 18 17  1  0
 19 18  1  0
 21 20  1  0
 30 20  1  0
 22 21  2  0
 26 21  1  0
 23 22  1  0
 24 23  2  0
 25 24  1  0
 27 24  1  0
 26 25  2  0
 28 27  2  0
 29 27  1  0
M  CHG  1  28   1
A    1
O21
A    2
C20
A    3
N19
A    4
C23
A    5
C24
A    6
C32
A    7
C31
A    8
C30
A    9
F29
A   10
C26
A   11
C25
A   12
C17
A   13
O18
A   14
C16
A   15
C15
A   16
N11
A   17
C12
A   18
C13
A   19
C14
A   20
C10
A   21
C7
A   22
C8
A   23
C9
A   24
C4
A   25
C5
A   26
C6
A   27
C3
A   28
N1
A   29
N2
A   30
C22
M  END
>  <Id>  (144) 
1OYT_FSN_H_501

>  <ChainId>  (144) 
H

>  <AsymId>  (144) 
F

>  <SeqNum>  (144) 
501

>  <Name>  (144) 
(3ASR,4RS,8ASR,8BRS)-4-(2-(4-FLUOROBENZYL)-1,3-DIOXODEACAHYDROPYRROLO[3,4-A] PYRROLIZIN-4-YL)BENZAMIDINE

>  <SystematicName>  (144) 
[[4-[(3aS,4R,5S,8aS,8bR)-2-[(4-fluorophenyl)methyl]-1,3-dioxo-4,6,7,8,8a,8b-hexahydro-3aH-pyrrolo[3,4-a]pyrrolizin-4-yl]phenyl]-amino-methylidene]azanium

>  <Synonyms>  (144) 


>  <Type>  (144) 
NON-POLYMER

>  <Formula>  (144) 
C23 H24 F N4 O2

>  <ObservedFormula>  (144) 
C23 F N4 O2

>  <MolecularWeight>  (144) 
407.461

>  <ModifiedDate>  (144) 
2011-06-04

>  <Parent>  (144) 


>  <OneLetterCode>  (144) 


>  <SubcomponentList>  (144) 


>  <AmbiguousFlag>  (144) 
N

>  <InsertionCode>  (144) 


>  <InstanceId>  (144) 
1OYT_FSN_H_501

>  <ChemCompId>  (144) 
FSN

>  <PdbId>  (144) 
1OYT

>  <ResidueNumber>  (144) 
501

>  <InChI>  (144) 
InChI=1S/C23H23FN4O2/c24-16-9-3-13(4-10-16)12-28-22(29)18-17-2-1-11-27(17)20(19(18)23(28)30)14-5-7-15(8-6-14)21(25)26/h3-10,17-20H,1-2,11-12H2,(H3,25,26)/p+1/t17-,18-,19-,20-/m0/s1

>  <InChIKey>  (144) 
GJYCQHGTXMVIBG-MUGJNUQGSA-O

>  <SMILES>  (144) 
c1cc(ccc1CN2C(=O)[C@H]3[C@@H]4CCC[N@@]4[C@H]([C@H]3C2=O)c5ccc(cc5)C(=[NH2+])N)F

>  <MissingHeavyAtoms>  (144) 
0

>  <Model>  (144) 
1

>  <AltIds>  (144) 


>  <pKI>  (144) 
7.24

>  <ChemblID>  (144) 
-

>  <standardized_canonical_smiles>  (144) 
NC(=[NH2+])c1ccc([C@H]2[C@H]3C(=O)N(Cc4ccc(F)cc4)C(=O)[C@H]3[C@@H]3CCCN32)cc1

$$$$
4BAM_NAG_B_901
     RDKit          3D

 14 14  0  0  0  0  0  0  0  0999 V2000
   33.3630   -9.3730   12.3510 N   0  0  0  0  0  0  0  0  0  0  0  0
   32.5960   -7.3630    9.1730 O   0  0  0  0  0  0  0  0  0  0  0  0
   33.7560   -6.5150    9.0350 C   0  0  0  0  0  0  0  0  0  0  0  0
   33.6220   -8.6450   11.0730 C   0  0  0  0  0  0  0  0  0  0  0  0
   33.7910   -6.1470    7.5670 C   0  0  0  0  0  0  0  0  0  0  0  0
   32.3880   -7.8930   10.5020 C   0  0  0  0  0  0  0  0  0  0  0  0
   35.0820   -7.1600    9.5230 C   0  0  0  0  0  0  0  0  0  0  0  0
   36.1600   -6.1640    9.4410 O   0  0  0  0  0  0  0  0  0  0  0  0
   32.9390   -9.7220   14.7240 C   0  0  0  0  0  0  0  0  0  0  0  0
   36.0420   -8.2660   11.5510 O   0  0  0  0  0  0  0  0  0  0  0  0
   33.1810   -8.7670   13.5840 C   0  0  0  0  0  0  0  0  0  0  0  0
   32.7570   -5.1880    7.3400 O   0  0  0  0  0  0  0  0  0  0  0  0
   33.2110   -7.5510   13.7660 O   0  0  0  0  0  0  0  0  0  0  0  0
   34.8530   -7.6680   10.9920 C   0  0  0  0  0  0  0  0  0  0  0  0
 11  1  1  0
 11  9  1  0
  6  2  1  0
  6  4  1  0
 14 10  1  0
  3  5  1  0
  5 12  1  0
  4 14  1  0
  3  2  1  0
  4  1  1  0
  7  3  1  0
  7  8  1  0
 11 13  2  0
 14  7  1  0
A    1
N2
A    2
O5
A    3
C5
A    4
C2
A    5
C6
A    6
C1
A    7
C4
A    8
O4
A    9
C8
A   10
O3
A   11
C7
A   12
O6
A   13
O7
A   14
C3
M  END
>  <InstanceId>  (145) 
4BAM_NAG

>  <ChemCompId>  (145) 
NAG

>  <PdbId>  (145) 
4BAM

>  <ChainId>  (145) 
B

>  <ResidueNumber>  (145) 
901

>  <InsertionCode>  (145) 
null

>  <Model>  (145) 
1

>  <AltIds>  (145) 


>  <MissingHeavyAtoms>  (145) 
1

>  <ObservedFormula>  (145) 
C8 N O5

>  <AsymId>  (145) 
D

>  <SeqNum>  (145) 
901

>  <Name>  (145) 
N-ACETYL-D-GLUCOSAMINE

>  <SystematicName>  (145) 
N-[(2R,3R,4R,5S,6R)-6-(hydroxymethyl)-2,4,5-tris(oxidanyl)oxan-3-yl]ethanamide

>  <Synonyms>  (145) 


>  <Type>  (145) 
D-SACCHARIDE

>  <Formula>  (145) 
C8 H15 N O6

>  <MolecularWeight>  (145) 
221.208

>  <ModifiedDate>  (145) 
2012-11-26

>  <Parent>  (145) 


>  <OneLetterCode>  (145) 


>  <SubcomponentList>  (145) 


>  <AmbiguousFlag>  (145) 
N

>  <InChI>  (145) 
InChI=1S/C8H15NO6/c1-3(11)9-5-7(13)6(12)4(2-10)15-8(5)14/h4-8,10,12-14H,2H2,1H3,(H,9,11)/t4-,5-,6-,7-,8-/m1/s1

>  <InChIKey>  (145) 
OVRNDRQMDRJTHS-FMDGEEDCSA-N

>  <SMILES>  (145) 
CC(=O)N[C@@H]1[C@H]([C@@H]([C@H](O[C@H]1O)CO)O)O

>  <pKI>  (145) 
3.49

>  <ChemblID>  (145) 
-

>  <standardized_canonical_smiles>  (145) 
NC(=[NH2+])c1ccccc1

$$$$
1C5O_BAM_H_410
     RDKit          3D

  9  9  0  0  0  0  0  0  0  0999 V2000
   11.8270  -11.7370   23.1510 C   0  0  0  0  0  0  0  0  0  0  0  0
   12.2520  -12.9160   22.5400 C   0  0  0  0  0  0  0  0  0  0  0  0
   13.1770  -12.8950   21.5060 C   0  0  0  0  0  0  0  0  0  0  0  0
   13.7030  -11.6970   21.0520 C   0  0  0  0  0  0  0  0  0  0  0  0
   13.3090  -10.5250   21.6260 C   0  0  0  0  0  0  0  0  0  0  0  0
   12.3830  -10.5490   22.6610 C   0  0  0  0  0  0  0  0  0  0  0  0
   10.9010  -11.7410   24.2070 C   0  0  0  0  0  0  0  0  0  0  0  0
   10.3210  -12.8610   24.5160 N   0  0  0  0  0  0  0  0  0  0  0  0
   10.6290  -10.6390   24.8750 N   0  0  0  0  0  0  0  0  0  0  0  0
  2  1  2  0
  6  1  1  0
  7  1  1  0
  3  2  1  0
  4  3  2  0
  5  4  1  0
  6  5  2  0
  8  7  1  0
  9  7  2  0
M  CHG  1   9   1
A    1
C1
A    2
C2
A    3
C3
A    4
C4
A    5
C5
A    6
C6
A    7
C
A    8
N1
A    9
N2
M  END
>  <Id>  (146) 
1C5O_BAM_H_410

>  <ChainId>  (146) 
H

>  <AsymId>  (146) 
E

>  <SeqNum>  (146) 
410

>  <Name>  (146) 
BENZAMIDINE

>  <SystematicName>  (146) 
(amino-phenyl-methylidene)azanium

>  <Synonyms>  (146) 


>  <Type>  (146) 
NON-POLYMER

>  <Formula>  (146) 
C7 H9 N2

>  <ObservedFormula>  (146) 
C7 N2

>  <MolecularWeight>  (146) 
121.16

>  <ModifiedDate>  (146) 
2011-06-04

>  <Parent>  (146) 


>  <OneLetterCode>  (146) 


>  <SubcomponentList>  (146) 


>  <AmbiguousFlag>  (146) 
N

>  <InsertionCode>  (146) 


>  <InstanceId>  (146) 
1C5O_BAM_H_410

>  <ChemCompId>  (146) 
BAM

>  <PdbId>  (146) 
1C5O

>  <ResidueNumber>  (146) 
410

>  <InChI>  (146) 
InChI=1S/C7H8N2/c8-7(9)6-4-2-1-3-5-6/h1-5H,(H3,8,9)/p+1

>  <InChIKey>  (146) 
PXXJHWLDUBFPOL-UHFFFAOYSA-O

>  <SMILES>  (146) 
c1ccc(cc1)C(=[NH2+])N

>  <MissingHeavyAtoms>  (146) 
0

>  <Model>  (146) 
1

>  <AltIds>  (146) 


>  <pKI>  (146) 
3.49

>  <ChemblID>  (146) 
-

>  <standardized_canonical_smiles>  (146) 
NC(=[NH2+])c1ccccc1

$$$$
4BAM_MM9_B_1287
     RDKit          3D

 33 35  0  0  0  0  0  0  0  0999 V2000
   18.7580  -14.4100   24.2350 C   0  0  0  0  0  0  0  0  0  0  0  0
   18.8850  -15.7670   24.9610 C   0  0  0  0  0  0  0  0  0  0  0  0
   19.4730  -15.5880   26.3700 C   0  0  0  0  0  0  0  0  0  0  0  0
   20.8280  -14.8600   26.3120 C   0  0  0  0  0  0  0  0  0  0  0  0
   20.6840  -13.4900   25.6230 C   0  0  0  0  0  0  0  0  0  0  0  0
   20.1280  -13.6970   24.2010 C   0  0  0  0  0  0  0  0  0  0  0  0
   16.9340  -15.3900   22.8200 N   0  0  0  0  0  0  0  0  0  0  0  0
   18.2000  -14.6130   22.8030 C   0  0  0  0  0  0  0  0  0  0  0  0
   17.9120  -13.2740   22.1670 C   0  0  0  0  0  0  0  0  0  0  0  0
   16.8690  -12.6920   22.4490 O   0  0  0  0  0  0  0  0  0  0  0  0
   18.7370  -12.6980   21.2700 N   0  0  0  0  0  0  0  0  0  0  0  0
   18.5550  -11.5070   20.4350 C   0  0  0  0  0  0  0  0  0  0  0  0
   17.1810  -11.6540   19.8010 C   0  0  0  0  0  0  0  0  0  0  0  0
   16.8790  -12.6960   19.2430 O   0  0  0  0  0  0  0  0  0  0  0  0
   16.2590  -10.6940   19.9950 N   0  0  0  0  0  0  0  0  0  0  0  0
   14.9020  -10.8410   19.4620 C   0  0  0  0  0  0  0  0  0  0  0  0
   13.9440  -10.8230   20.6240 C   0  0  0  0  0  0  0  0  0  0  0  0
   13.3340   -9.6230   20.9720 C   0  0  0  0  0  0  0  0  0  0  0  0
   12.4450   -9.5740   22.0260 C   0  0  0  0  0  0  0  0  0  0  0  0
   12.2150  -10.7340   22.7870 C   0  0  0  0  0  0  0  0  0  0  0  0
   12.8420  -11.9450   22.4370 C   0  0  0  0  0  0  0  0  0  0  0  0
   13.7010  -11.9780   21.3440 C   0  0  0  0  0  0  0  0  0  0  0  0
   11.2270  -10.6890   23.8950 C   0  0  0  0  0  0  0  0  0  0  0  0
   10.9340   -9.5600   24.4770 N   0  0  0  0  0  0  0  0  0  0  0  0
   10.5360  -11.8340   24.2760 N   0  0  0  0  0  0  0  0  0  0  0  0
   19.7440  -11.8950   19.5470 C   0  0  0  0  0  0  0  0  0  0  0  0
   19.9830  -13.0310   20.5500 C   0  0  0  0  0  0  0  0  0  0  0  0
   16.3400  -15.6770   21.4820 C   0  0  0  0  0  0  0  0  0  0  0  0
   14.6100  -15.5200   19.0600 C   0  0  0  0  0  0  0  0  0  0  0  0
   14.8200  -15.6910   21.5430 C   0  0  0  0  0  0  0  0  0  0  0  0
   14.2730  -15.7660   22.6390 O   0  0  0  0  0  0  0  0  0  0  0  0
   12.5630  -15.5960   20.5270 C   0  0  0  0  0  0  0  0  0  0  0  0
   14.0380  -15.6080   20.4160 N   0  0  0  0  0  0  0  0  0  0  0  0
  2  1  1  0
  6  1  1  0
  8  1  1  0
  3  2  1  0
  4  3  1  0
  5  4  1  0
  6  5  1  0
  8  7  1  0
 28  7  1  0
  9  8  1  0
 10  9  2  0
 11  9  1  0
 12 11  1  0
 27 11  1  0
 13 12  1  0
 26 12  1  0
 14 13  2  0
 15 13  1  0
 16 15  1  0
 17 16  1  0
 18 17  2  0
 22 17  1  0
 19 18  1  0
 20 19  2  0
 21 20  1  0
 23 20  1  0
 22 21  2  0
 24 23  2  0
 25 23  1  0
 27 26  1  0
 30 28  1  0
 33 29  1  0
 31 30  2  0
 33 30  1  0
 33 32  1  0
A    1
C1
A    2
C2
A    3
C3
A    4
C4
A    5
C5
A    6
C6
A    7
N7
A    8
C8
A    9
C9
A   10
O0
A   11
N11
A   12
C12
A   13
C13
A   14
O14
A   15
N15
A   16
C16
A   17
C17
A   18
C18
A   19
C19
A   20
C20
A   21
C21
A   22
C22
A   23
C23
A   24
N24
A   25
N25
A   26
C26
A   27
C27
A   28
C28
A   29
C10
A   30
C29
A   31
O30
A   32
C30
A   33
N2
M  END
>  <Id>  (147) 
4BAM_MM9_B_1287

>  <ChainId>  (147) 
B

>  <AsymId>  (147) 
E

>  <SeqNum>  (147) 
1287

>  <Name>  (147) 
(2S)-N-[(4-carbamimidoylphenyl)methyl]-1-[(2R)-2-cyclohexyl-2-[[2-(dimethylamino)-2-oxidanylidene-ethyl]amino]ethanoyl]azetidine-2-carboxamide

>  <SystematicName>  (147) 
(2S)-N-[(4-carbamimidoylphenyl)methyl]-1-[(2R)-2-cyclohexyl-2-[[2-(dimethylamino)-2-oxidanylidene-ethyl]amino]ethanoyl]azetidine-2-carboxamide

>  <Synonyms>  (147) 


>  <Type>  (147) 
non-polymer

>  <Formula>  (147) 
C24 H36 N6 O3

>  <ObservedFormula>  (147) 
C24 N6 O3

>  <MolecularWeight>  (147) 
456.581

>  <ModifiedDate>  (147) 
2014-09-05

>  <Parent>  (147) 


>  <OneLetterCode>  (147) 


>  <SubcomponentList>  (147) 


>  <AmbiguousFlag>  (147) 
N

>  <InsertionCode>  (147) 


>  <InstanceId>  (147) 
4BAM_MM9_B_1287

>  <ChemCompId>  (147) 
MM9

>  <PdbId>  (147) 
4BAM

>  <ResidueNumber>  (147) 
1287

>  <InChI>  (147) 
InChI=1S/C24H36N6O3/c1-29(2)20(31)15-27-21(17-6-4-3-5-7-17)24(33)30-13-12-19(30)23(32)28-14-16-8-10-18(11-9-16)22(25)26/h8-11,17,19,21,27H,3-7,12-15H2,1-2H3,(H3,25,26)(H,28,32)/t19-,21+/m0/s1

>  <InChIKey>  (147) 
UBUHFANKPRTXGI-PZJWPPBQSA-N

>  <SMILES>  (147) 
[H]/N=C(/c1ccc(cc1)CNC(=O)[C@@H]2CCN2C(=O)[C@@H](C3CCCCC3)NCC(=O)N(C)C)\N

>  <MissingHeavyAtoms>  (147) 
0

>  <Model>  (147) 
1

>  <AltIds>  (147) 


>  <pKI>  (147) 
3.49

>  <ChemblID>  (147) 
-

>  <standardized_canonical_smiles>  (147) 
NC(=[NH2+])c1ccccc1

$$$$
4BAM_TYS_D_363
     RDKit          3D

 16 17  0  0  0  0  0  0  0  0999 V2000
   16.0350    3.4480   -5.1140 N   0  0  0  0  0  0  0  0  0  0  0  0
   16.5370    3.1350   -3.7790 C   0  0  0  0  0  0  0  0  0  0  0  0
   15.3980    2.9250   -2.7500 C   0  0  0  0  0  0  0  0  0  0  0  0
   14.4200    4.0990   -2.7130 C   0  0  0  0  0  0  0  0  0  0  0  0
   14.8610    5.3820   -2.3120 C   0  0  0  0  0  0  0  0  0  0  0  0
   13.0880    3.8990   -3.0960 C   0  0  0  0  0  0  0  0  0  0  0  0
   13.9690    6.4520   -2.2840 C   0  0  0  0  0  0  0  0  0  0  0  0
   12.1820    4.9900   -3.0680 C   0  0  0  0  0  0  0  0  0  0  0  0
   12.6270    6.2670   -2.6410 C   0  0  0  0  0  0  0  0  0  0  0  0
   11.7460    7.3260   -2.5980 O   0  0  0  0  0  0  0  0  0  0  0  0
   10.9990    7.4550   -1.2250 S   0  0  0  0  0  0  0  0  0  0  0  0
   10.1330    6.2740   -0.9810 O   0  0  0  0  0  0  0  0  0  0  0  0
   12.0020    8.0930   -0.3870 O   0  0  0  0  0  0  0  0  0  0  0  0
   10.0030    8.5340   -1.5570 O   0  0  0  0  0  0  0  0  0  0  0  0
   17.5990    2.0320   -3.7780 C   0  0  0  0  0  0  0  0  0  0  0  0
   18.1440    1.7220   -2.7140 O   0  0  0  0  0  0  0  0  0  0  0  0
  2  1  1  0
  1 15  1  0
  3  2  1  0
 15  2  1  0
  4  3  1  0
  5  4  2  0
  6  4  1  0
  7  5  1  0
  8  6  2  0
  9  7  2  0
  9  8  1  0
 10  9  1  0
 11 10  1  0
 12 11  2  0
 13 11  2  0
 14 11  1  0
 16 15  2  0
A    1
N
A    2
CA
A    3
CB
A    4
CG
A    5
CD1
A    6
CD2
A    7
CE1
A    8
CE2
A    9
CZ
A   10
OH
A   11
S
A   12
O1
A   13
O2
A   14
O3
A   15
C
A   16
O
M  END
>  <Id>  (148) 
4BAM_TYS_D_363

>  <ChainId>  (148) 
D

>  <AsymId>  (148) 
C

>  <SeqNum>  (148) 
363

>  <Name>  (148) 
O-SULFO-L-TYROSINE

>  <SystematicName>  (148) 
(2S)-2-azanyl-3-(4-sulfooxyphenyl)propanoic acid

>  <Synonyms>  (148) 


>  <Type>  (148) 
L-PEPTIDE LINKING

>  <Formula>  (148) 
C9 H11 N O6 S

>  <ObservedFormula>  (148) 
C9 S N O5

>  <MolecularWeight>  (148) 
261.252

>  <ModifiedDate>  (148) 
2012-11-26

>  <Parent>  (148) 
TYR

>  <OneLetterCode>  (148) 
Y

>  <SubcomponentList>  (148) 


>  <AmbiguousFlag>  (148) 
N

>  <InsertionCode>  (148) 


>  <InstanceId>  (148) 
4BAM_TYS_D_363

>  <ChemCompId>  (148) 
TYS

>  <PdbId>  (148) 
4BAM

>  <ResidueNumber>  (148) 
363

>  <InChI>  (148) 
InChI=1S/C9H11NO6S/c10-8(9(11)12)5-6-1-3-7(4-2-6)16-17(13,14)15/h1-4,8H,5,10H2,(H,11,12)(H,13,14,15)/t8-/m0/s1

>  <InChIKey>  (148) 
CIQHWLTYGMYQQR-QMMMGPOBSA-N

>  <SMILES>  (148) 
c1cc(ccc1C[C@@H](C(=O)O)N)OS(=O)(=O)O

>  <MissingHeavyAtoms>  (148) 
1

>  <Model>  (148) 
1

>  <AltIds>  (148) 


>  <pKI>  (148) 
3.49

>  <ChemblID>  (148) 
-

>  <standardized_canonical_smiles>  (148) 
NC(=[NH2+])c1ccccc1

$$$$
2ZDA_32U_H_1000
     RDKit          3D

 29 31  0  0  0  0  0  0  0  0999 V2000
   16.4070  -15.9690   23.2170 N   0  0  0  0  0  0  0  0  0  0  0  0
   17.7070  -15.2630   23.2930 C   0  0  0  0  0  0  0  0  0  0  0  0
   17.6420  -13.9000   22.6520 C   0  0  0  0  0  0  0  0  0  0  0  0
   16.7470  -13.1380   23.0070 O   0  0  0  0  0  0  0  0  0  0  0  0
   18.2000  -15.1780   24.7660 C   0  0  0  0  0  0  0  0  0  0  0  0
   19.6330  -14.6780   24.8320 C   0  0  0  0  0  0  0  0  0  0  0  0
   20.7020  -15.4890   24.4400 C   0  0  0  0  0  0  0  0  0  0  0  0
   19.8990  -13.3910   25.2910 C   0  0  0  0  0  0  0  0  0  0  0  0
   22.0080  -15.0060   24.5090 C   0  0  0  0  0  0  0  0  0  0  0  0
   21.1970  -12.9070   25.3620 C   0  0  0  0  0  0  0  0  0  0  0  0
   22.2700  -13.7180   24.9670 C   0  0  0  0  0  0  0  0  0  0  0  0
   18.5340  -13.4950   21.7020 N   0  0  0  0  0  0  0  0  0  0  0  0
   18.4020  -12.1880   21.1060 C   0  0  0  0  0  0  0  0  0  0  0  0
   17.0550  -12.0990   20.4110 C   0  0  0  0  0  0  0  0  0  0  0  0
   16.6070  -13.0590   19.7980 O   0  0  0  0  0  0  0  0  0  0  0  0
   19.4930  -12.2580   19.9960 C   0  0  0  0  0  0  0  0  0  0  0  0
   20.5540  -13.1510   20.6840 C   0  0  0  0  0  0  0  0  0  0  0  0
   19.7150  -14.2790   21.3400 C   0  0  0  0  0  0  0  0  0  0  0  0
   16.4400  -10.8940   20.4880 N   0  0  0  0  0  0  0  0  0  0  0  0
   15.1610  -10.8260   19.7490 C   0  0  0  0  0  0  0  0  0  0  0  0
   14.0560  -10.8140   20.8210 C   0  0  0  0  0  0  0  0  0  0  0  0
   13.6330  -12.0110   21.3850 C   0  0  0  0  0  0  0  0  0  0  0  0
   12.6360  -12.0280   22.3570 C   0  0  0  0  0  0  0  0  0  0  0  0
   12.0380  -10.8380   22.7830 C   0  0  0  0  0  0  0  0  0  0  0  0
   10.8850  -10.8290   23.9030 C   0  0  0  0  0  0  0  0  0  0  0  0
   10.5950   -9.6970   24.5280 N   0  0  0  0  0  0  0  0  0  0  0  0
   10.2350  -11.9340   24.1950 N   0  0  0  0  0  0  0  0  0  0  0  0
   12.4720   -9.6480   22.2100 C   0  0  0  0  0  0  0  0  0  0  0  0
   13.4720   -9.6230   21.2350 C   0  0  0  0  0  0  0  0  0  0  0  0
  2  1  1  0
  3  2  1  0
  5  2  1  0
  4  3  2  0
 12  3  1  0
  6  5  1  0
  7  6  2  0
  8  6  1  0
  9  7  1  0
 10  8  2  0
 11  9  2  0
 11 10  1  0
 13 12  1  0
 18 12  1  0
 14 13  1  0
 16 13  1  0
 15 14  2  0
 19 14  1  0
 17 16  1  0
 18 17  1  0
 20 19  1  0
 21 20  1  0
 22 21  2  0
 29 21  1  0
 23 22  1  0
 24 23  2  0
 25 24  1  0
 28 24  1  0
 26 25  2  0
 27 25  1  0
 29 28  2  0
M  CHG  1  26   1
A    1
N13
A    2
C5
A    3
C14
A    4
O32
A    5
C33
A    6
C6
A    7
C8
A    8
C12
A    9
C9
A   10
C11
A   11
C10
A   12
N1
A   13
C1
A   14
C7
A   15
O22
A   16
C2
A   17
C3
A   18
C4
A   19
N23
A   20
C24
A   21
C25
A   22
C26
A   23
C27
A   24
C28
A   25
C21
A   26
N46
A   27
N47
A   28
C29
A   29
C30
M  END
>  <Id>  (149) 
2ZDA_32U_H_1000

>  <ChainId>  (149) 
H

>  <AsymId>  (149) 
G

>  <SeqNum>  (149) 
1000

>  <Name>  (149) 
D-phenylalanyl-N-{4-[amino(iminio)methyl]benzyl}-L-prolinamide

>  <SystematicName>  (149) 
[azanyl-[4-[[[(2S)-1-[(2R)-2-azanyl-3-phenyl-propanoyl]pyrrolidin-2-yl]carbonylamino]methyl]phenyl]methylidene]azanium

>  <Synonyms>  (149) 


>  <Type>  (149) 
peptide-like

>  <Formula>  (149) 
C22 H28 N5 O2

>  <ObservedFormula>  (149) 
C22 N5 O2

>  <MolecularWeight>  (149) 
394.49

>  <ModifiedDate>  (149) 
2012-01-05

>  <Parent>  (149) 


>  <OneLetterCode>  (149) 


>  <SubcomponentList>  (149) 
DPN PRO 00S

>  <AmbiguousFlag>  (149) 
N

>  <InsertionCode>  (149) 


>  <InstanceId>  (149) 
2ZDA_32U_H_1000

>  <ChemCompId>  (149) 
32U

>  <PdbId>  (149) 
2ZDA

>  <ResidueNumber>  (149) 
1000

>  <InChI>  (149) 
InChI=1S/C22H27N5O2/c23-18(13-15-5-2-1-3-6-15)22(29)27-12-4-7-19(27)21(28)26-14-16-8-10-17(11-9-16)20(24)25/h1-3,5-6,8-11,18-19H,4,7,12-14,23H2,(H3,24,25)(H,26,28)/p+1/t18-,19+/m1/s1

>  <InChIKey>  (149) 
VZFTWWJAUZOJDH-MOPGFXCFSA-O

>  <SMILES>  (149) 
c1ccc(cc1)C[C@H](C(=O)N2CCC[C@H]2C(=O)NCc3ccc(cc3)C(=[NH2+])N)N

>  <MissingHeavyAtoms>  (149) 
0

>  <Model>  (149) 
1

>  <AltIds>  (149) 


>  <pKI>  (149) 
8.4

>  <ChemblID>  (149) 
-

>  <standardized_canonical_smiles>  (149) 
NC(=[NH2+])c1ccc(CNC(=O)[C@@H]2CCCN2C(=O)[C@H](N)Cc2ccccc2)cc1

$$$$
5MM6_32U_H_311
     RDKit          3D

 29 31  0  0  0  0  0  0  0  0999 V2000
   16.5350  -15.5370   23.3630 N   0  0  0  0  0  0  0  0  0  0  0  0
   17.8560  -14.8910   23.3840 C   0  0  0  0  0  0  0  0  0  0  0  0
   17.7110  -13.5140   22.7260 C   0  0  0  0  0  0  0  0  0  0  0  0
   16.8000  -12.7760   23.0830 O   0  0  0  0  0  0  0  0  0  0  0  0
   18.4030  -14.8340   24.8110 C   0  0  0  0  0  0  0  0  0  0  0  0
   19.7850  -14.2350   24.8970 C   0  0  0  0  0  0  0  0  0  0  0  0
   19.9810  -12.9860   25.4580 C   0  0  0  0  0  0  0  0  0  0  0  0
   20.8900  -14.9180   24.4010 C   0  0  0  0  0  0  0  0  0  0  0  0
   21.2430  -12.4160   25.5000 C   0  0  0  0  0  0  0  0  0  0  0  0
   22.1530  -14.3480   24.4430 C   0  0  0  0  0  0  0  0  0  0  0  0
   22.3270  -13.0930   24.9860 C   0  0  0  0  0  0  0  0  0  0  0  0
   18.5940  -13.1420   21.7840 N   0  0  0  0  0  0  0  0  0  0  0  0
   18.4260  -11.8340   21.1410 C   0  0  0  0  0  0  0  0  0  0  0  0
   17.0640  -11.7470   20.4700 C   0  0  0  0  0  0  0  0  0  0  0  0
   16.6000  -12.7130   19.8620 O   0  0  0  0  0  0  0  0  0  0  0  0
   19.5490  -11.7890   20.0980 C   0  0  0  0  0  0  0  0  0  0  0  0
   20.5600  -12.8100   20.5670 C   0  0  0  0  0  0  0  0  0  0  0  0
   19.7430  -13.8850   21.2430 C   0  0  0  0  0  0  0  0  0  0  0  0
   16.4420  -10.5730   20.5630 N   0  0  0  0  0  0  0  0  0  0  0  0
   15.1270  -10.3550   19.9770 C   0  0  0  0  0  0  0  0  0  0  0  0
   14.0310  -10.4040   21.0120 C   0  0  0  0  0  0  0  0  0  0  0  0
   13.2970   -9.2770   21.3230 C   0  0  0  0  0  0  0  0  0  0  0  0
   12.3180   -9.3100   22.2970 C   0  0  0  0  0  0  0  0  0  0  0  0
   12.0380  -10.4830   22.9830 C   0  0  0  0  0  0  0  0  0  0  0  0
   10.9820  -10.5080   24.0040 C   0  0  0  0  0  0  0  0  0  0  0  0
   10.6970   -9.3660   24.6350 N   0  0  0  0  0  0  0  0  0  0  0  0
   10.3410  -11.5840   24.3150 N   0  0  0  0  0  0  0  0  0  0  0  0
   12.7640  -11.6220   22.6600 C   0  0  0  0  0  0  0  0  0  0  0  0
   13.7490  -11.5780   21.6910 C   0  0  0  0  0  0  0  0  0  0  0  0
  2  1  1  0
  3  2  1  0
  5  2  1  0
  4  3  2  0
 12  3  1  0
  6  5  1  0
  7  6  2  0
  8  6  1  0
  9  7  1  0
 10  8  2  0
 11  9  2  0
 11 10  1  0
 13 12  1  0
 18 12  1  0
 14 13  1  0
 16 13  1  0
 15 14  2  0
 19 14  1  0
 17 16  1  0
 18 17  1  0
 20 19  1  0
 21 20  1  0
 22 21  2  0
 29 21  1  0
 23 22  1  0
 24 23  2  0
 25 24  1  0
 28 24  1  0
 26 25  2  0
 27 25  1  0
 29 28  2  0
M  CHG  1  26   1
A    1
N13
A    2
C5
A    3
C14
A    4
O32
A    5
C33
A    6
C6
A    7
C8
A    8
C12
A    9
C9
A   10
C11
A   11
C10
A   12
N1
A   13
C1
A   14
C7
A   15
O22
A   16
C2
A   17
C3
A   18
C4
A   19
N23
A   20
C24
A   21
C25
A   22
C26
A   23
C27
A   24
C28
A   25
C21
A   26
N46
A   27
N47
A   28
C29
A   29
C30
M  END
>  <Id>  (150) 
5MM6_32U_H_311

>  <ChainId>  (150) 
H

>  <AsymId>  (150) 
N

>  <SeqNum>  (150) 
311

>  <Name>  (150) 
D-phenylalanyl-N-{4-[amino(iminio)methyl]benzyl}-L-prolinamide

>  <SystematicName>  (150) 
[azanyl-[4-[[[(2S)-1-[(2R)-2-azanyl-3-phenyl-propanoyl]pyrrolidin-2-yl]carbonylamino]methyl]phenyl]methylidene]azanium

>  <Synonyms>  (150) 


>  <Type>  (150) 
peptide-like

>  <Formula>  (150) 
C22 H28 N5 O2

>  <ObservedFormula>  (150) 
C22 N5 O2

>  <MolecularWeight>  (150) 
394.49

>  <ModifiedDate>  (150) 
2012-01-05

>  <Parent>  (150) 


>  <OneLetterCode>  (150) 


>  <SubcomponentList>  (150) 
DPN PRO 00S

>  <AmbiguousFlag>  (150) 
N

>  <InsertionCode>  (150) 


>  <InstanceId>  (150) 
5MM6_32U_H_311

>  <ChemCompId>  (150) 
32U

>  <PdbId>  (150) 
5MM6

>  <ResidueNumber>  (150) 
311

>  <InChI>  (150) 
InChI=1S/C22H27N5O2/c23-18(13-15-5-2-1-3-6-15)22(29)27-12-4-7-19(27)21(28)26-14-16-8-10-17(11-9-16)20(24)25/h1-3,5-6,8-11,18-19H,4,7,12-14,23H2,(H3,24,25)(H,26,28)/p+1/t18-,19+/m1/s1

>  <InChIKey>  (150) 
VZFTWWJAUZOJDH-MOPGFXCFSA-O

>  <SMILES>  (150) 
c1ccc(cc1)C[C@H](C(=O)N2CCC[C@H]2C(=O)NCc3ccc(cc3)C(=[NH2+])N)N

>  <MissingHeavyAtoms>  (150) 
0

>  <Model>  (150) 
1

>  <AltIds>  (150) 


>  <pKI>  (150) 
8.4

>  <ChemblID>  (150) 
-

>  <standardized_canonical_smiles>  (150) 
NC(=[NH2+])c1ccc(CNC(=O)[C@@H]2CCCN2C(=O)[C@H](N)Cc2ccccc2)cc1

$$$$
2BVR_4CP_H_1246
     RDKit          3D

 27 28  0  0  0  0  0  0  0  0999 V2000
   16.4540   -9.5390   12.2240 C   0  0  0  0  0  0  0  0  0  0  0  0
   15.4440   -9.5710   13.2400 C   0  0  0  0  0  0  0  0  0  0  0  0
   15.4380  -10.6260   14.2120 C   0  0  0  0  0  0  0  0  0  0  0  0
   16.4460  -11.6510   14.1660 C   0  0  0  0  0  0  0  0  0  0  0  0
   17.4560  -11.6110   13.1400 C   0  0  0  0  0  0  0  0  0  0  0  0
   17.4600  -10.5590   12.1720 C   0  0  0  0  0  0  0  0  0  0  0  0
   16.4640   -8.2810   11.0660 Cl  0  0  0  0  0  0  0  0  0  0  0  0
   16.4050  -12.9200   15.3700 S   0  0  0  0  0  0  0  0  0  0  0  0
   16.6940  -14.5870   14.7000 C   0  0  0  0  0  0  0  0  0  0  0  0
   15.3890  -15.2740   14.3200 C   0  0  0  0  0  0  0  0  0  0  0  0
   15.4540  -16.4010   13.8540 O   0  0  0  0  0  0  0  0  0  0  0  0
   14.1320  -14.6730   14.4830 N   0  0  0  0  0  0  0  0  0  0  0  0
   12.8060  -15.2770   14.1350 C   0  0  0  0  0  0  0  0  0  0  0  0
   12.1130  -15.7490   15.4400 C   0  0  0  0  0  0  0  0  0  0  0  0
   12.8310  -16.8140   16.2830 C   0  0  0  0  0  0  0  0  0  0  0  0
   13.4700  -16.4110   17.5100 C   0  0  0  0  0  0  0  0  0  0  0  0
   14.1490  -17.3790   18.3290 C   0  0  0  0  0  0  0  0  0  0  0  0
   14.2010  -18.7790   17.9370 C   0  0  0  0  0  0  0  0  0  0  0  0
   13.5580  -19.1680   16.7020 C   0  0  0  0  0  0  0  0  0  0  0  0
   12.8760  -18.1970   15.8820 C   0  0  0  0  0  0  0  0  0  0  0  0
   14.8640  -19.8290   18.7020 N   0  0  0  0  0  0  0  0  0  0  0  0
   15.5740  -19.7960   19.9360 C   0  0  0  0  0  0  0  0  0  0  0  0
   15.7520  -18.7030   20.6300 N   0  0  0  0  0  0  0  0  0  0  0  0
   16.0990  -20.9800   20.4200 N   0  0  0  0  0  0  0  0  0  0  0  0
   11.9320  -14.2320   13.4280 C   0  0  0  0  0  0  0  0  0  0  0  0
   12.3020  -13.0670   13.3840 O   0  0  0  0  0  0  0  0  0  0  0  0
   10.7260  -14.5680   12.8210 N   0  0  0  0  0  0  0  0  0  0  0  0
  2  1  2  0
  6  1  1  0
  7  1  1  0
  3  2  1  0
  4  3  2  0
  5  4  1  0
  8  4  1  0
  6  5  2  0
  9  8  1  0
 10  9  1  0
 11 10  2  0
 12 10  1  0
 13 12  1  0
 14 13  1  0
 25 13  1  0
 15 14  1  0
 16 15  2  0
 20 15  1  0
 17 16  1  0
 18 17  2  0
 19 18  1  0
 21 18  1  0
 20 19  2  0
 22 21  1  0
 23 22  2  0
 24 22  1  0
 26 25  2  0
 27 25  1  0
A    1
C1
A    2
C2
A    3
C3
A    4
C4
A    5
C5
A    6
C6
A    7
CL7
A    8
S8
A    9
C9
A   10
C10
A   11
O11
A   12
N12
A   13
C13
A   14
C14
A   15
C15
A   16
C16
A   17
C17
A   18
C18
A   19
C19
A   20
C20
A   21
N21
A   22
C22
A   23
N23
A   24
N24
A   25
C25
A   26
O26
A   27
N27
M  END
>  <Id>  (151) 
2BVR_4CP_H_1246

>  <ChainId>  (151) 
H

>  <AsymId>  (151) 
D

>  <SeqNum>  (151) 
1246

>  <Name>  (151) 
2-[2-(4-CHLORO-PHENYLSULFANYL)-ACETYLAMINO]-3-(4-GUANIDINO-PHENYL)-PROPIONAMIDE

>  <SystematicName>  (151) 
(2S)-3-(4-carbamimidamidophenyl)-2-[2-(4-chlorophenyl)sulfanylethanoylamino]propanamide

>  <Synonyms>  (151) 


>  <Type>  (151) 
NON-POLYMER

>  <Formula>  (151) 
C18 H20 Cl N5 O2 S

>  <ObservedFormula>  (151) 
C18 S Cl N5 O2

>  <MolecularWeight>  (151) 
405.902

>  <ModifiedDate>  (151) 
2011-06-04

>  <Parent>  (151) 


>  <OneLetterCode>  (151) 


>  <SubcomponentList>  (151) 


>  <AmbiguousFlag>  (151) 
N

>  <InsertionCode>  (151) 


>  <InstanceId>  (151) 
2BVR_4CP_H_1246

>  <ChemCompId>  (151) 
4CP

>  <PdbId>  (151) 
2BVR

>  <ResidueNumber>  (151) 
1246

>  <InChI>  (151) 
InChI=1S/C18H20ClN5O2S/c19-12-3-7-14(8-4-12)27-10-16(25)24-15(17(20)26)9-11-1-5-13(6-2-11)23-18(21)22/h1-8,15H,9-10H2,(H2,20,26)(H,24,25)(H4,21,22,23)/t15-/m0/s1

>  <InChIKey>  (151) 
IEEYGOJDTRVYGR-HNNXBMFYSA-N

>  <SMILES>  (151) 
[H]/N=C(\N)/Nc1ccc(cc1)C[C@@H](C(=O)N)NC(=O)CSc2ccc(cc2)Cl

>  <MissingHeavyAtoms>  (151) 
0

>  <Model>  (151) 
1

>  <AltIds>  (151) 


>  <pKI>  (151) 
3.7

>  <ChemblID>  (151) 
-

>  <standardized_canonical_smiles>  (151) 
N=C(N)Nc1ccc(C[C@H](NC(=O)CSc2ccc(Cl)cc2)C(N)=O)cc1

$$$$
2BVS_2CE_H_1246
     RDKit          3D

 37 38  0  0  0  0  0  0  0  0999 V2000
   16.6210   -9.7900   12.1740 C   0  0  0  0  0  0  0  0  0  0  0  0
   15.7030   -9.7780   13.2410 C   0  0  0  0  0  0  0  0  0  0  0  0
   15.7260  -10.7940   14.2190 C   0  0  0  0  0  0  0  0  0  0  0  0
   16.6740  -11.8330   14.1330 C   0  0  0  0  0  0  0  0  0  0  0  0
   17.5930  -11.8410   13.0550 C   0  0  0  0  0  0  0  0  0  0  0  0
   17.5680  -10.8250   12.0790 C   0  0  0  0  0  0  0  0  0  0  0  0
   16.5840   -8.5420   10.9940 Cl  0  0  0  0  0  0  0  0  0  0  0  0
   16.6710  -13.0820   15.3710 S   0  0  0  0  0  0  0  0  0  0  0  0
   17.0080  -14.7470   14.7410 C   0  0  0  0  0  0  0  0  0  0  0  0
   15.7190  -15.4880   14.4200 C   0  0  0  0  0  0  0  0  0  0  0  0
   15.8130  -16.6290   14.0220 O   0  0  0  0  0  0  0  0  0  0  0  0
   14.4450  -14.9320   14.5500 N   0  0  0  0  0  0  0  0  0  0  0  0
   13.2030  -15.6690   14.2030 C   0  0  0  0  0  0  0  0  0  0  0  0
   12.4590  -16.0770   15.5000 C   0  0  0  0  0  0  0  0  0  0  0  0
   13.1660  -17.0480   16.4530 C   0  0  0  0  0  0  0  0  0  0  0  0
   13.5740  -16.5970   17.7320 C   0  0  0  0  0  0  0  0  0  0  0  0
   14.2310  -17.4810   18.6310 C   0  0  0  0  0  0  0  0  0  0  0  0
   14.4930  -18.8370   18.2580 C   0  0  0  0  0  0  0  0  0  0  0  0
   14.0800  -19.2740   16.9750 C   0  0  0  0  0  0  0  0  0  0  0  0
   13.4230  -18.3900   16.0790 C   0  0  0  0  0  0  0  0  0  0  0  0
   15.1560  -19.7960   19.1220 N   0  0  0  0  0  0  0  0  0  0  0  0
   15.6570  -19.6190   20.4300 C   0  0  0  0  0  0  0  0  0  0  0  0
   15.5710  -18.4810   21.0560 N   0  0  0  0  0  0  0  0  0  0  0  0
   16.2610  -20.6960   21.0660 N   0  0  0  0  0  0  0  0  0  0  0  0
   12.3400  -14.7430   13.3660 C   0  0  0  0  0  0  0  0  0  0  0  0
   12.6940  -13.5860   13.2130 O   0  0  0  0  0  0  0  0  0  0  0  0
   11.2030  -15.1990   12.7330 N   0  0  0  0  0  0  0  0  0  0  0  0
   10.3850  -14.3800   11.8430 C   0  0  0  0  0  0  0  0  0  0  0  0
    8.9150  -14.8090   11.8030 C   0  0  0  0  0  0  0  0  0  0  0  0
    8.4440  -15.2660   13.0710 O   0  0  0  0  0  0  0  0  0  0  0  0
    8.6550  -14.3170   14.1150 C   0  0  0  0  0  0  0  0  0  0  0  0
    8.2290  -14.8570   15.4900 C   0  0  0  0  0  0  0  0  0  0  0  0
    7.0880  -14.1600   15.9790 O   0  0  0  0  0  0  0  0  0  0  0  0
    7.4120  -13.3220   17.0840 C   0  0  0  0  0  0  0  0  0  0  0  0
    8.7960  -12.7250   16.9150 C   0  0  0  0  0  0  0  0  0  0  0  0
    9.3300  -12.7460   15.8240 O   0  0  0  0  0  0  0  0  0  0  0  0
    9.4690  -12.1760   17.9950 N   0  0  0  0  0  0  0  0  0  0  0  0
  2  1  2  0
  6  1  1  0
  7  1  1  0
  3  2  1  0
  4  3  2  0
  5  4  1  0
  8  4  1  0
  6  5  2  0
  9  8  1  0
 10  9  1  0
 11 10  2  0
 12 10  1  0
 13 12  1  0
 14 13  1  0
 25 13  1  0
 15 14  1  0
 16 15  2  0
 20 15  1  0
 17 16  1  0
 18 17  2  0
 19 18  1  0
 21 18  1  0
 20 19  2  0
 22 21  1  0
 23 22  2  0
 24 22  1  0
 26 25  2  0
 27 25  1  0
 28 27  1  0
 29 28  1  0
 30 29  1  0
 31 30  1  0
 32 31  1  0
 33 32  1  0
 34 33  1  0
 35 34  1  0
 36 35  2  0
 37 35  1  0
A    1
C1
A    2
C2
A    3
C3
A    4
C4
A    5
C5
A    6
C6
A    7
CL7
A    8
S8
A    9
C9
A   10
C10
A   11
O11
A   12
N12
A   13
C13
A   14
C14
A   15
C15
A   16
C16
A   17
C17
A   18
C18
A   19
C19
A   20
C20
A   21
N21
A   22
C22
A   23
N23
A   24
N24
A   25
C25
A   26
O26
A   27
N27
A   28
C28
A   29
C29
A   30
O30
A   31
C31
A   32
C32
A   33
O33
A   34
C34
A   35
C35
A   36
O36
A   37
N37
M  END
>  <Id>  (152) 
2BVS_2CE_H_1246

>  <ChainId>  (152) 
H

>  <AsymId>  (152) 
D

>  <SeqNum>  (152) 
1246

>  <Name>  (152) 
N-[2-(2-CARBAMOYLMETHOXY-ETHOXY)-ETHYL]-2-[2-(4-CHLORO-PHENYLSULFANYL)-ACETYLAMINO]-3-(4-GUANIDINO-PHENYL)-PROPIONAMIDE

>  <SystematicName>  (152) 
(2S)-N-[2-[2-(2-amino-2-oxo-ethoxy)ethoxy]ethyl]-3-(4-carbamimidamidophenyl)-2-[2-(4-chlorophenyl)sulfanylethanoylamino]propanamide

>  <Synonyms>  (152) 


>  <Type>  (152) 
NON-POLYMER

>  <Formula>  (152) 
C24 H31 Cl N6 O5 S

>  <ObservedFormula>  (152) 
C24 S Cl N6 O5

>  <MolecularWeight>  (152) 
551.058

>  <ModifiedDate>  (152) 
2011-06-04

>  <Parent>  (152) 


>  <OneLetterCode>  (152) 


>  <SubcomponentList>  (152) 


>  <AmbiguousFlag>  (152) 
N

>  <InsertionCode>  (152) 


>  <InstanceId>  (152) 
2BVS_2CE_H_1246

>  <ChemCompId>  (152) 
2CE

>  <PdbId>  (152) 
2BVS

>  <ResidueNumber>  (152) 
1246

>  <InChI>  (152) 
InChI=1S/C24H31ClN6O5S/c25-17-3-7-19(8-4-17)37-15-22(33)31-20(13-16-1-5-18(6-2-16)30-24(27)28)23(34)29-9-10-35-11-12-36-14-21(26)32/h1-8,20H,9-15H2,(H2,26,32)(H,29,34)(H,31,33)(H4,27,28,30)/t20-/m0/s1

>  <InChIKey>  (152) 
SUVIJSGBAJVXMV-FQEVSTJZSA-N

>  <SMILES>  (152) 
[H]/N=C(\N)/Nc1ccc(cc1)C[C@@H](C(=O)NCCOCCOCC(=O)N)NC(=O)CSc2ccc(cc2)Cl

>  <MissingHeavyAtoms>  (152) 
0

>  <Model>  (152) 
1

>  <AltIds>  (152) 


>  <pKI>  (152) 
4.1

>  <ChemblID>  (152) 
-

>  <standardized_canonical_smiles>  (152) 
N=C(N)Nc1ccc(C[C@H](NC(=O)CSc2ccc(Cl)cc2)C(=O)NCCOCCOCC(N)=O)cc1

$$$$
1BMM_BM2_H_1
     RDKit          3D

 35 37  0  0  0  0  0  0  0  0999 V2000
   14.8680   43.5620   18.2060 C   0  0  0  0  0  0  0  0  0  0  0  0
   14.8240   42.2270   18.4340 O   0  0  0  0  0  0  0  0  0  0  0  0
   14.6200   43.7730   16.9250 C   0  0  0  0  0  0  0  0  0  0  0  0
   13.1260   43.7070   16.8620 C   0  0  0  0  0  0  0  0  0  0  0  0
   12.7030   43.7500   15.5350 C   0  0  0  0  0  0  0  0  0  0  0  0
   11.4210   43.7390   15.3540 N   0  0  0  0  0  0  0  0  0  0  0  0
   10.8980   44.0430   14.1690 C   0  0  0  0  0  0  0  0  0  0  0  0
    9.6950   43.9820   14.1280 N   0  0  0  0  0  0  0  0  0  0  0  0
   11.7210   44.2910   13.2180 N   0  0  0  0  0  0  0  0  0  0  0  0
   15.1800   44.7030   19.0280 N   0  0  0  0  0  0  0  0  0  0  0  0
   15.4120   44.9070   20.5350 C   0  0  0  0  0  0  0  0  0  0  0  0
   14.9560   45.9150   21.4080 C   0  0  0  0  0  0  0  0  0  0  0  0
   13.7350   45.6210   21.8180 N   0  0  0  0  0  0  0  0  0  0  0  0
   13.7420   45.0740   23.2630 C   0  0  0  0  0  0  0  0  0  0  0  0
   15.0590   44.5900   23.3910 C   0  0  0  0  0  0  0  0  0  0  0  0
   15.6000   45.6250   22.6470 C   0  0  0  0  0  0  0  0  0  0  0  0
   10.6350   45.5750   20.9180 N   0  0  0  0  0  0  0  0  0  0  0  0
   11.5470   44.8970   21.3590 C   0  0  0  0  0  0  0  0  0  0  0  0
   12.6480   45.7050   20.9680 C   0  0  0  0  0  0  0  0  0  0  0  0
   12.5100   46.1940   19.7730 O   0  0  0  0  0  0  0  0  0  0  0  0
   11.8980   43.6900   20.5610 C   0  0  0  0  0  0  0  0  0  0  0  0
   10.6850   43.0680   20.4350 O   0  0  0  0  0  0  0  0  0  0  0  0
    9.9810   46.5140   21.7150 S   0  0  0  0  0  0  0  0  0  0  0  0
    9.5740   45.9630   22.9530 O   0  0  0  0  0  0  0  0  0  0  0  0
    8.6800   46.8860   21.1350 O   0  0  0  0  0  0  0  0  0  0  0  0
   11.3460   48.8200   21.1460 C   0  0  0  0  0  0  0  0  0  0  0  0
   10.9130   47.9230   22.0170 C   0  0  0  0  0  0  0  0  0  0  0  0
   11.3060   47.9150   23.1990 C   0  0  0  0  0  0  0  0  0  0  0  0
   12.1090   48.6970   23.6530 C   0  0  0  0  0  0  0  0  0  0  0  0
   13.6510   50.3150   23.6070 C   0  0  0  0  0  0  0  0  0  0  0  0
   14.3090   51.1210   22.8050 C   0  0  0  0  0  0  0  0  0  0  0  0
   13.9140   51.1740   21.4530 C   0  0  0  0  0  0  0  0  0  0  0  0
   12.8900   50.4720   20.8230 C   0  0  0  0  0  0  0  0  0  0  0  0
   12.2510   49.6820   21.6080 C   0  0  0  0  0  0  0  0  0  0  0  0
   12.6360   49.6140   22.9540 C   0  0  0  0  0  0  0  0  0  0  0  0
  2  1  2  0
  3  1  1  0
 10  1  1  0
  4  3  1  0
  5  4  1  0
  6  5  1  0
  7  6  1  0
  8  7  2  0
  9  7  1  0
 11 10  1  0
 12 11  1  0
 13 12  1  0
 16 12  1  0
 14 13  1  0
 19 13  1  0
 15 14  1  0
 16 15  1  0
 18 17  1  0
 23 17  1  0
 19 18  1  0
 21 18  1  0
 20 19  2  0
 22 21  1  0
 24 23  2  0
 25 23  2  0
 27 23  1  0
 27 26  2  0
 34 26  1  0
 28 27  1  0
 29 28  2  0
 35 29  1  0
 31 30  1  0
 35 30  2  0
 32 31  2  0
 33 32  1  0
 34 33  2  0
 35 34  1  0
A    1
C27
A    2
O28
A    3
C29
A    4
C30
A    5
C31
A    6
N32
A    7
C33
A    8
N35
A    9
N34
A   10
N26
A   11
C25
A   12
C24
A   13
N20
A   14
C21
A   15
C22
A   16
C23
A   17
N14
A   18
C15
A   19
C18
A   20
O19
A   21
C16
A   22
O17
A   23
S11
A   24
O13
A   25
O12
A   26
C2
A   27
C1
A   28
C8
A   29
C7
A   30
C6
A   31
C5
A   32
C4
A   33
C3
A   34
C9
A   35
C10
M  END
>  <Id>  (153) 
1BMM_BM2_H_1

>  <ChainId>  (153) 
H

>  <AsymId>  (153) 
D

>  <SeqNum>  (153) 
1

>  <Name>  (153) 
S-(R*,R*)]-4-[AMINOIMINOMETHYL)AMINO]-N-[[1-[3-HYDROXY -2-[(2-NAPHTHALENYLSULFONYL)AMINO]-1-OXOPROPYL]-2-PYRROLIDINYL] METHYL]BUTANAMIDE

>  <SystematicName>  (153) 
4-carbamimidamido-N-[[(2S)-1-[(2S)-3-hydroxy-2-(naphthalen-2-ylsulfonylamino)propanoyl]pyrrolidin-2-yl]methyl]butanamide

>  <Synonyms>  (153) 
BMS-186282

>  <Type>  (153) 
peptide-like

>  <Formula>  (153) 
C23 H32 N6 O5 S

>  <ObservedFormula>  (153) 
C23 S N6 O5

>  <MolecularWeight>  (153) 
504.602

>  <ModifiedDate>  (153) 
2011-06-04

>  <Parent>  (153) 


>  <OneLetterCode>  (153) 


>  <SubcomponentList>  (153) 
ALG P2Y SER NAS

>  <AmbiguousFlag>  (153) 
N

>  <InsertionCode>  (153) 


>  <InstanceId>  (153) 
1BMM_BM2_H_1

>  <ChemCompId>  (153) 
BM2

>  <PdbId>  (153) 
1BMM

>  <ResidueNumber>  (153) 
1

>  <InChI>  (153) 
InChI=1S/C23H32N6O5S/c24-23(25)26-11-3-8-21(31)27-14-18-7-4-12-29(18)22(32)20(15-30)28-35(33,34)19-10-9-16-5-1-2-6-17(16)13-19/h1-2,5-6,9-10,13,18,20,28,30H,3-4,7-8,11-12,14-15H2,(H,27,31)(H4,24,25,26)/t18-,20-/m0/s1

>  <InChIKey>  (153) 
NTVCMEJZWNSEFW-ICSRJNTNSA-N

>  <SMILES>  (153) 
c1ccc2cc(ccc2c1)S(=O)(=O)N[C@@H](CO)C(=O)N3CCC[C@H]3CNC(=O)CCCNC(=N)N

>  <MissingHeavyAtoms>  (153) 
0

>  <Model>  (153) 
1

>  <AltIds>  (153) 


>  <pKI>  (153) 
7.1

>  <ChemblID>  (153) 
-

>  <standardized_canonical_smiles>  (153) 
N=C(N)NCCCC(=O)NC[C@@H]1CCCN1C(=O)[C@H](CO)NS(=O)(=O)c1ccc2ccccc2c1

$$$$
1JWT_BLI_A_300
     RDKit          3D

 34 37  0  0  0  0  0  0  0  0999 V2000
   17.7350  -13.9960   22.2350 N   0  0  0  0  0  0  0  0  0  0  0  0
   18.8210  -14.6480   21.5290 C   0  0  0  0  0  0  0  0  0  0  0  0
   19.7850  -15.3630   22.4630 C   0  0  0  0  0  0  0  0  0  0  0  0
   19.0680  -16.2000   23.4190 N   0  0  0  0  0  0  0  0  0  0  0  0
   17.6270  -15.9660   23.5790 C   0  0  0  0  0  0  0  0  0  0  0  0
   17.1710  -14.5240   23.3250 C   0  0  0  0  0  0  0  0  0  0  0  0
   16.3340  -13.9400   24.0230 O   0  0  0  0  0  0  0  0  0  0  0  0
   17.1860  -12.8340   21.5380 C   0  0  0  0  0  0  0  0  0  0  0  0
   15.6420  -12.9580   21.2390 C   0  0  0  0  0  0  0  0  0  0  0  0
   15.0830  -14.0220   21.4130 O   0  0  0  0  0  0  0  0  0  0  0  0
   14.9840  -11.8570   20.8010 N   0  0  0  0  0  0  0  0  0  0  0  0
   18.0920  -12.7750   20.2820 C   0  0  0  0  0  0  0  0  0  0  0  0
   19.3810  -13.5080   20.6810 C   0  0  0  0  0  0  0  0  0  0  0  0
   19.6420  -17.7900   23.8030 S   0  0  0  0  0  0  0  0  0  0  0  0
   19.9080  -18.4020   22.5110 O   0  0  0  0  0  0  0  0  0  0  0  0
   21.2350  -17.5760   24.6220 C   0  0  0  0  0  0  0  0  0  0  0  0
   18.6420  -18.3240   24.6480 O   0  0  0  0  0  0  0  0  0  0  0  0
   13.5690  -11.9310   20.4640 C   0  0  0  0  0  0  0  0  0  0  0  0
   12.8440  -11.9540   21.7800 C   0  0  0  0  0  0  0  0  0  0  0  0
   11.9430  -10.7470   21.9030 C   0  0  0  0  0  0  0  0  0  0  0  0
   11.3780  -10.7110   23.3130 C   0  0  0  0  0  0  0  0  0  0  0  0
   12.0540  -13.2410   21.9710 C   0  0  0  0  0  0  0  0  0  0  0  0
   11.4820  -13.2180   23.3890 C   0  0  0  0  0  0  0  0  0  0  0  0
   10.7820  -11.9750   23.7580 N   0  0  0  0  0  0  0  0  0  0  0  0
   10.4520  -11.8810   25.1140 C   0  0  0  0  0  0  0  0  0  0  0  0
    9.8710  -12.8690   25.6700 N   0  0  0  0  0  0  0  0  0  0  0  0
   10.6950  -10.8010   25.8880 N   0  0  0  0  0  0  0  0  0  0  0  0
   10.3130   -9.4370   25.6980 O   0  0  0  0  0  0  0  0  0  0  0  0
   21.2170  -16.4670   25.6310 C   0  0  0  0  0  0  0  0  0  0  0  0
   22.1830  -15.4710   25.6220 C   0  0  0  0  0  0  0  0  0  0  0  0
   21.9100  -14.2860   26.2620 C   0  0  0  0  0  0  0  0  0  0  0  0
   20.7220  -14.1480   26.9540 C   0  0  0  0  0  0  0  0  0  0  0  0
   19.8590  -15.2210   27.1250 C   0  0  0  0  0  0  0  0  0  0  0  0
   20.1350  -16.4010   26.4960 C   0  0  0  0  0  0  0  0  0  0  0  0
  2  1  1  0
  6  1  1  0
  8  1  1  0
  3  2  1  0
 13  2  1  0
  4  3  1  0
  5  4  1  0
 14  4  1  0
  6  5  1  0
  7  6  2  0
  9  8  1  0
 12  8  1  0
 10  9  2  0
 11  9  1  0
 18 11  1  0
 13 12  1  0
 15 14  2  0
 16 14  1  0
 17 14  2  0
 29 16  1  0
 19 18  1  0
 20 19  1  0
 22 19  1  0
 21 20  1  0
 24 21  1  0
 23 22  1  0
 24 23  1  0
 25 24  1  0
 26 25  1  0
 27 25  2  0
 28 27  1  0
 30 29  2  0
 34 29  1  0
 31 30  1  0
 32 31  2  0
 33 32  1  0
 34 33  2  0
A    1
N1
A    2
C1
A    3
C2
A    4
N3
A    5
C4
A    6
C5
A    7
O11
A    8
C01
A    9
C09
A   10
O09
A   11
N10
A   12
C03
A   13
C06
A   14
S1
A   15
O2
A   16
C02
A   17
O1
A   18
C1'
A   19
C2'
A   20
C3'
A   21
C7'
A   22
C4'
A   23
C5'
A   24
N1'
A   25
C6'
A   26
N2'
A   27
N3'
A   28
O3'
A   29
C6B
A   30
C1B
A   31
C2B
A   32
C3B
A   33
C4B
A   34
C5B
M  END
>  <Id>  (154) 
1JWT_BLI_A_300

>  <ChainId>  (154) 
A

>  <AsymId>  (154) 
B

>  <SeqNum>  (154) 
300

>  <Name>  (154) 
4-OXO-2-PHENYLMETHANESULFONYL-OCTAHYDRO-PYRROLO[1,2-A]PYRAZINE-6-CARBOXYLIC ACID [1-(N-HYDROXYCARBAMIMIDOYL)-PIPERIDIN-4-YLMETHYL]-AMIDE

>  <SystematicName>  (154) 
(2S,6S,8aS)-N-[[1-(N'-hydroxycarbamimidoyl)piperidin-4-yl]methyl]-4-oxo-2-(phenylmethylsulfonyl)-1,3,6,7,8,8a-hexahydropyrrolo[5,1-f]pyrazine-6-carboxamide

>  <Synonyms>  (154) 


>  <Type>  (154) 
NON-POLYMER

>  <Formula>  (154) 
C22 H32 N6 O5 S

>  <ObservedFormula>  (154) 
C22 S N6 O5

>  <MolecularWeight>  (154) 
492.592

>  <ModifiedDate>  (154) 
2011-06-04

>  <Parent>  (154) 


>  <OneLetterCode>  (154) 


>  <SubcomponentList>  (154) 


>  <AmbiguousFlag>  (154) 
N

>  <InsertionCode>  (154) 


>  <InstanceId>  (154) 
1JWT_BLI_A_300

>  <ChemCompId>  (154) 
BLI

>  <PdbId>  (154) 
1JWT

>  <ResidueNumber>  (154) 
300

>  <InChI>  (154) 
InChI=1S/C22H32N6O5S/c23-22(25-31)26-10-8-16(9-11-26)12-24-21(30)19-7-6-18-13-27(14-20(29)28(18)19)34(32,33)15-17-4-2-1-3-5-17/h1-5,16,18-19,31H,6-15H2,(H2,23,25)(H,24,30)/t18-,19-/m0/s1

>  <InChIKey>  (154) 
DHTSUHWLPAEEQB-OALUTQOASA-N

>  <SMILES>  (154) 
c1ccc(cc1)CS(=O)(=O)[N@]2C[C@@H]3CC[C@H](N3C(=O)C2)C(=O)NCC4CCN(CC4)C(=NO)N

>  <MissingHeavyAtoms>  (154) 
0

>  <Model>  (154) 
1

>  <AltIds>  (154) 


>  <pKI>  (154) 
7.85

>  <ChemblID>  (154) 
-

>  <standardized_canonical_smiles>  (154) 
N/C(=N/O)N1CCC(CNC(=O)[C@@H]2CC[C@H]3CN(S(=O)(=O)Cc4ccccc4)CC(=O)N32)CC1

$$$$
2BXT_C2D_H_1246
     RDKit          3D

 31 34  0  0  0  0  0  0  0  0999 V2000
   12.1720  -13.1210   13.0270 O   0  0  0  0  0  0  0  0  0  0  0  0
   16.4230   -8.3340   11.0040 Cl  0  0  0  0  0  0  0  0  0  0  0  0
    8.1380  -12.6370   15.9790 Cl  0  0  0  0  0  0  0  0  0  0  0  0
   17.7400  -10.7330   11.4800 C   0  0  0  0  0  0  0  0  0  0  0  0
   17.9060  -11.9740   12.1890 C   0  0  0  0  0  0  0  0  0  0  0  0
   16.6740   -9.8360   11.8280 C   0  0  0  0  0  0  0  0  0  0  0  0
   16.9910  -12.3030   13.2350 C   0  0  0  0  0  0  0  0  0  0  0  0
   15.7810  -10.1800   12.8680 C   0  0  0  0  0  0  0  0  0  0  0  0
   15.9530  -11.4110   13.5560 C   0  0  0  0  0  0  0  0  0  0  0  0
   16.8950  -13.6270   14.2040 S   0  0  0  0  0  0  0  0  0  0  0  0
   15.6100  -13.1120   15.0260 C   0  0  0  0  0  0  0  0  0  0  0  0
   15.1540  -11.8700   14.5810 C   0  0  0  0  0  0  0  0  0  0  0  0
   13.9720  -11.0570   15.0700 C   0  0  0  0  0  0  0  0  0  0  0  0
   13.2670  -11.6180   16.2400 N   0  0  0  0  0  0  0  0  0  0  0  0
   11.9170  -12.2650   16.1350 C   0  0  0  0  0  0  0  0  0  0  0  0
   10.9320  -11.7610   15.0440 C   0  0  0  0  0  0  0  0  0  0  0  0
    9.0200  -13.4190   14.7130 C   0  0  0  0  0  0  0  0  0  0  0  0
   10.3150  -12.9200   14.3470 N   0  0  0  0  0  0  0  0  0  0  0  0
    8.4900  -14.4800   14.0630 C   0  0  0  0  0  0  0  0  0  0  0  0
   11.0600  -13.5400   13.3280 C   0  0  0  0  0  0  0  0  0  0  0  0
    9.2660  -15.1550   12.9640 N   0  0  0  0  0  0  0  0  0  0  0  0
   10.4700  -14.7210   12.6170 C   0  0  0  0  0  0  0  0  0  0  0  0
   11.1940  -15.3270   11.6050 N   0  0  0  0  0  0  0  0  0  0  0  0
   10.8610  -16.4970   10.7460 C   0  0  0  0  0  0  0  0  0  0  0  0
   10.1250  -16.0740    9.4490 C   0  0  0  0  0  0  0  0  0  0  0  0
    7.7090  -16.1510   10.2640 C   0  0  0  0  0  0  0  0  0  0  0  0
    8.7970  -15.4260    9.7580 C   0  0  0  0  0  0  0  0  0  0  0  0
    6.5040  -15.4720   10.5520 C   0  0  0  0  0  0  0  0  0  0  0  0
    8.6570  -14.0420    9.5630 N   0  0  0  0  0  0  0  0  0  0  0  0
    6.3750  -14.0910   10.3410 C   0  0  0  0  0  0  0  0  0  0  0  0
    7.4620  -13.3670    9.8370 C   0  0  0  0  0  0  0  0  0  0  0  0
 20  1  1  0
  6  2  1  0
 17  3  1  0
  5  4  2  0
  6  4  1  0
  7  5  1  0
  8  6  2  0
  9  7  2  0
 10  7  1  0
  9  8  1  0
 12  9  1  0
 11 10  1  0
 12 11  2  0
 13 12  1  0
 14 13  1  0
 15 14  1  0
 16 15  1  0
 18 16  1  0
 18 17  1  0
 19 17  1  0
 20 18  1  0
 21 19  1  0
 22 20  1  0
 22 21  2  0
 23 22  1  0
 24 23  1  0
 25 24  1  0
 27 25  1  0
 27 26  1  0
 28 26  1  0
 29 27  1  0
 30 28  1  0
 31 29  1  0
 31 30  1  0
A    1
O1
A    2
CL2
A    3
CL3
A    4
C4
A    5
C5
A    6
C6
A    7
C7
A    8
C8
A    9
C9
A   10
S10
A   11
C11
A   12
C12
A   13
C13
A   14
N14
A   15
C15
A   16
C16
A   17
C17
A   18
N18
A   19
C19
A   20
C20
A   21
N21
A   22
C22
A   23
N23
A   24
C24
A   25
C25
A   26
C26
A   27
C27
A   28
C28
A   29
N29
A   30
C30
A   31
C31
M  END
>  <Id>  (155) 
2BXT_C2D_H_1246

>  <ChainId>  (155) 
H

>  <AsymId>  (155) 
D

>  <SeqNum>  (155) 
1246

>  <Name>  (155) 
6-CHLORO-1-(2-{[(5-CHLORO-1-BENZOTHIEN-3-YL)METHYL]AMINO}ETHYL)-3-[(2-PYRIDIN-2-YLETHYL)AMINO]-1,4-DIHYDROPYRAZIN-2-OL

>  <SystematicName>  (155) 
6-chloro-1-[2-[(5-chloro-1-benzothiophen-3-yl)methylamino]ethyl]-3-(2-piperidin-2-ylethylamino)-5,6-dihydro-2H-pyrazin-2-ol

>  <Synonyms>  (155) 


>  <Type>  (155) 
NON-POLYMER

>  <Formula>  (155) 
C22 H31 Cl2 N5 O S

>  <ObservedFormula>  (155) 
C22 S Cl2 N5 O

>  <MolecularWeight>  (155) 
484.485

>  <ModifiedDate>  (155) 
2011-06-04

>  <Parent>  (155) 


>  <OneLetterCode>  (155) 


>  <SubcomponentList>  (155) 


>  <AmbiguousFlag>  (155) 
N

>  <InsertionCode>  (155) 


>  <InstanceId>  (155) 
2BXT_C2D_H_1246

>  <ChemCompId>  (155) 
C2D

>  <PdbId>  (155) 
2BXT

>  <ResidueNumber>  (155) 
1246

>  <InChI>  (155) 
InChI=1S/C22H31Cl2N5OS/c23-16-4-5-19-18(11-16)15(14-31-19)12-25-9-10-29-20(24)13-28-21(22(29)30)27-8-6-17-3-1-2-7-26-17/h4-5,11,14,17,20,22,25-26,30H,1-3,6-10,12-13H2,(H,27,28)/t17-,20-,22?/m1/s1

>  <InChIKey>  (155) 
YHTGPUXGIBWHPN-IKQMYLSPSA-N

>  <SMILES>  (155) 
c1cc2c(cc1Cl)c(cs2)CNCCN3C(CN=C(C3O)NCCC4CCCCN4)Cl

>  <MissingHeavyAtoms>  (155) 
0

>  <Model>  (155) 
1

>  <AltIds>  (155) 


>  <pKI>  (155) 
8.52

>  <ChemblID>  (155) 
-

>  <standardized_canonical_smiles>  (155) 
OC1C(NCCC2CCCCN2)=NCC(Cl)N1CCNCc1csc2ccc(Cl)cc12

$$$$
2BVX_5CB_H_1246
     RDKit          3D

 32 35  0  0  0  0  0  0  0  0999 V2000
   12.2110  -13.5610   12.5930 O   0  0  0  0  0  0  0  0  0  0  0  0
   16.3500   -8.0570   10.9510 Cl  0  0  0  0  0  0  0  0  0  0  0  0
    8.4960  -13.0970   16.0310 Cl  0  0  0  0  0  0  0  0  0  0  0  0
   17.7380  -10.4050   10.9660 C   0  0  0  0  0  0  0  0  0  0  0  0
   18.0880  -11.6720   11.5010 C   0  0  0  0  0  0  0  0  0  0  0  0
   16.7620   -9.5930   11.6210 C   0  0  0  0  0  0  0  0  0  0  0  0
   17.4450  -12.0950   12.6870 C   0  0  0  0  0  0  0  0  0  0  0  0
   16.1300  -10.0390   12.8150 C   0  0  0  0  0  0  0  0  0  0  0  0
   16.4810  -11.3070   13.3460 C   0  0  0  0  0  0  0  0  0  0  0  0
   17.6390  -13.4550   13.4980 S   0  0  0  0  0  0  0  0  0  0  0  0
   16.5870  -13.1790   14.6790 C   0  0  0  0  0  0  0  0  0  0  0  0
   15.9890  -11.9370   14.5010 C   0  0  0  0  0  0  0  0  0  0  0  0
   14.9450  -11.3580   15.4510 C   0  0  0  0  0  0  0  0  0  0  0  0
   13.5620  -11.3830   14.9280 N   0  0  0  0  0  0  0  0  0  0  0  0
   12.5080  -12.1950   15.3660 C   0  0  0  0  0  0  0  0  0  0  0  0
   11.1410  -12.0670   14.6980 C   0  0  0  0  0  0  0  0  0  0  0  0
    9.3190  -13.8690   14.7160 C   0  0  0  0  0  0  0  0  0  0  0  0
   10.5300  -13.3270   14.1710 N   0  0  0  0  0  0  0  0  0  0  0  0
    8.7900  -15.0170   14.2080 C   0  0  0  0  0  0  0  0  0  0  0  0
   11.1770  -13.9970   13.0820 C   0  0  0  0  0  0  0  0  0  0  0  0
    9.4640  -15.7290   13.0640 N   0  0  0  0  0  0  0  0  0  0  0  0
   10.5850  -15.2600   12.5330 C   0  0  0  0  0  0  0  0  0  0  0  0
   11.2080  -15.9200   11.4710 N   0  0  0  0  0  0  0  0  0  0  0  0
   10.5940  -16.7930   10.4460 C   0  0  0  0  0  0  0  0  0  0  0  0
    9.9540  -15.9430    9.3260 C   0  0  0  0  0  0  0  0  0  0  0  0
    7.4590  -16.1360    9.9780 C   0  0  0  0  0  0  0  0  0  0  0  0
    8.5650  -15.3530    9.5920 C   0  0  0  0  0  0  0  0  0  0  0  0
    6.2140  -15.5110   10.2000 C   0  0  0  0  0  0  0  0  0  0  0  0
    8.3880  -13.9620    9.4390 N   0  0  0  0  0  0  0  0  0  0  0  0
    6.0480  -14.1170   10.0430 C   0  0  0  0  0  0  0  0  0  0  0  0
    7.1440  -13.3350    9.6590 C   0  0  0  0  0  0  0  0  0  0  0  0
   12.6670  -12.9970   16.2660 O   0  0  0  0  0  0  0  0  0  0  0  0
 20  1  1  0
  6  2  1  0
 17  3  1  0
  5  4  2  0
  6  4  1  0
  7  5  1  0
  8  6  2  0
  9  7  2  0
 10  7  1  0
  9  8  1  0
 12  9  1  0
 11 10  1  0
 12 11  2  0
 13 12  1  0
 14 13  1  0
 15 14  1  0
 16 15  1  0
 32 15  2  0
 18 16  1  0
 18 17  1  0
 19 17  1  0
 20 18  1  0
 21 19  1  0
 22 20  1  0
 22 21  2  0
 23 22  1  0
 24 23  1  0
 25 24  1  0
 27 25  1  0
 27 26  2  0
 28 26  1  0
 29 27  1  0
 30 28  2  0
 31 29  2  0
 31 30  1  0
A    1
O1
A    2
CL2
A    3
CL3
A    4
C4
A    5
C5
A    6
C6
A    7
C7
A    8
C8
A    9
C9
A   10
S10
A   11
C11
A   12
C12
A   13
C13
A   14
N14
A   15
C15
A   16
C16
A   17
C17
A   18
N18
A   19
C19
A   20
C20
A   21
N21
A   22
C22
A   23
N23
A   24
C24
A   25
C25
A   26
C26
A   27
C27
A   28
C28
A   29
N29
A   30
C30
A   31
C31
A   32
O32
M  END
>  <Id>  (156) 
2BVX_5CB_H_1246

>  <ChainId>  (156) 
H

>  <AsymId>  (156) 
D

>  <SeqNum>  (156) 
1246

>  <Name>  (156) 
N-(5-CHLORO-BENZO[B]THIOPHEN-3-YLMETHYL)-2-[6-CHLORO-OXO-3-(2-PYRIDIN-2-YL-ETHYLAMINO)-2H-PYRAZIN-1-YL]-ACETAMIDE

>  <SystematicName>  (156) 
N-[(5-chloro-1-benzothiophen-3-yl)methyl]-2-[6-chloro-2-hydroxy-3-(2-pyridin-2-ylethylamino)-5,6-dihydro-2H-pyrazin-1-yl]ethanamide

>  <Synonyms>  (156) 


>  <Type>  (156) 
NON-POLYMER

>  <Formula>  (156) 
C22 H23 Cl2 N5 O2 S

>  <ObservedFormula>  (156) 
C22 S Cl2 N5 O2

>  <MolecularWeight>  (156) 
492.421

>  <ModifiedDate>  (156) 
2011-06-04

>  <Parent>  (156) 


>  <OneLetterCode>  (156) 


>  <SubcomponentList>  (156) 


>  <AmbiguousFlag>  (156) 
N

>  <InsertionCode>  (156) 


>  <InstanceId>  (156) 
2BVX_5CB_H_1246

>  <ChemCompId>  (156) 
5CB

>  <PdbId>  (156) 
2BVX

>  <ResidueNumber>  (156) 
1246

>  <InChI>  (156) 
InChI=1S/C22H23Cl2N5O2S/c23-15-4-5-18-17(9-15)14(13-32-18)10-27-20(30)12-29-19(24)11-28-21(22(29)31)26-8-6-16-3-1-2-7-25-16/h1-5,7,9,13,19,22,31H,6,8,10-12H2,(H,26,28)(H,27,30)/t19-,22-/m0/s1

>  <InChIKey>  (156) 
SOBGXPPOYFFGTK-UGKGYDQZSA-N

>  <SMILES>  (156) 
c1ccnc(c1)CCNC2=NCC(N(C2O)CC(=O)NCc3csc4c3cc(cc4)Cl)Cl

>  <MissingHeavyAtoms>  (156) 
0

>  <Model>  (156) 
1

>  <AltIds>  (156) 


>  <pKI>  (156) 
8.7

>  <ChemblID>  (156) 
-

>  <standardized_canonical_smiles>  (156) 
O=C(CN1C(Cl)CN=C(NCCc2ccccn2)C1O)NCc1csc2ccc(Cl)cc12

$$$$
3QTV_GOL_H_1701
     RDKit          3D

  6  5  0  0  0  0  0  0  0  0999 V2000
   16.6730  -11.2450   16.0420 C   0  0  0  0  0  0  0  0  0  0  0  0
   17.7580  -11.2410   15.1800 O   0  0  0  0  0  0  0  0  0  0  0  0
   15.4210  -10.6120   15.4970 C   0  0  0  0  0  0  0  0  0  0  0  0
   14.5470  -10.1340   16.4680 O   0  0  0  0  0  0  0  0  0  0  0  0
   15.7450   -9.6100   14.4100 C   0  0  0  0  0  0  0  0  0  0  0  0
   14.6730   -8.9300   13.8500 O   0  0  0  0  0  0  0  0  0  0  0  0
  2  1  1  0
  3  1  1  0
  4  3  1  0
  5  3  1  0
  6  5  1  0
A    1
C1
A    2
O1
A    3
C2
A    4
O2
A    5
C3
A    6
O3
M  END
>  <Id>  (157) 
3QTV_GOL_H_1701

>  <ChainId>  (157) 
H

>  <AsymId>  (157) 
G

>  <SeqNum>  (157) 
1701

>  <Name>  (157) 
GLYCEROL

>  <SystematicName>  (157) 
propane-1,2,3-triol

>  <Synonyms>  (157) 
GLYCERIN; PROPANE-1,2,3-TRIOL

>  <Type>  (157) 
NON-POLYMER

>  <Formula>  (157) 
C3 H8 O3

>  <ObservedFormula>  (157) 
C3 O3

>  <MolecularWeight>  (157) 
92.094

>  <ModifiedDate>  (157) 
2011-06-04

>  <Parent>  (157) 


>  <OneLetterCode>  (157) 


>  <SubcomponentList>  (157) 


>  <AmbiguousFlag>  (157) 
N

>  <InsertionCode>  (157) 


>  <InstanceId>  (157) 
3QTV_GOL_H_1701

>  <ChemCompId>  (157) 
GOL

>  <PdbId>  (157) 
3QTV

>  <ResidueNumber>  (157) 
1701

>  <InChI>  (157) 
InChI=1S/C3H8O3/c4-1-3(6)2-5/h3-6H,1-2H2

>  <InChIKey>  (157) 
PEDCQBHIVMGVHV-UHFFFAOYSA-N

>  <SMILES>  (157) 
C(C(CO)O)O

>  <MissingHeavyAtoms>  (157) 
0

>  <Model>  (157) 
1

>  <AltIds>  (157) 


>  <pKI>  (157) 
11.85

>  <ChemblID>  (157) 
-

>  <standardized_canonical_smiles>  (157) 
O=C(Cn1c(Cl)cnc(NCC(F)(F)c2cccc[n+]2[O-])c1=O)NCc1cc(Cl)ccc1-n1cnnn1

$$$$
1SL3_170_A_1001
     RDKit          3D

 37 40  0  0  0  0  0  0  0  0999 V2000
   19.8850  -14.4930   26.0920 C   0  0  0  0  0  0  0  0  0  0  0  0
   19.8090  -15.8920   25.7160 C   0  0  0  0  0  0  0  0  0  0  0  0
   20.8840  -16.4990   25.0550 N   0  0  0  0  0  0  0  0  0  0  0  0
   22.0630  -15.8640   24.6980 C   0  0  0  0  0  0  0  0  0  0  0  0
   22.1840  -14.4770   25.0450 C   0  0  0  0  0  0  0  0  0  0  0  0
   21.0990  -13.8170   25.7440 C   0  0  0  0  0  0  0  0  0  0  0  0
   18.5420  -16.7220   25.9220 C   0  0  0  0  0  0  0  0  0  0  0  0
   17.9270  -17.1560   24.6050 C   0  0  0  0  0  0  0  0  0  0  0  0
   17.2390  -16.0490   23.9180 N   0  0  0  0  0  0  0  0  0  0  0  0
   17.9430  -15.3750   22.8840 C   0  0  0  0  0  0  0  0  0  0  0  0
   17.4220  -14.1380   22.2760 C   0  0  0  0  0  0  0  0  0  0  0  0
   18.1450  -13.5090   21.2900 N   0  0  0  0  0  0  0  0  0  0  0  0
   19.4450  -13.9240   20.8140 C   0  0  0  0  0  0  0  0  0  0  0  0
   19.9520  -15.0780   21.4460 C   0  0  0  0  0  0  0  0  0  0  0  0
   19.2190  -15.7850   22.3930 N   0  0  0  0  0  0  0  0  0  0  0  0
   16.3470  -13.6760   22.6470 O   0  0  0  0  0  0  0  0  0  0  0  0
   20.2940  -13.0680   19.6270 Cl  0  0  0  0  0  0  0  0  0  0  0  0
   17.6120  -12.2700   20.6890 C   0  0  0  0  0  0  0  0  0  0  0  0
   16.1360  -12.4120   20.3520 C   0  0  0  0  0  0  0  0  0  0  0  0
   15.3990  -11.3120   20.5550 N   0  0  0  0  0  0  0  0  0  0  0  0
   15.6960  -13.4630   19.8970 O   0  0  0  0  0  0  0  0  0  0  0  0
   13.9620  -11.3520   20.2480 C   0  0  0  0  0  0  0  0  0  0  0  0
   13.1050  -11.3550   21.5070 C   0  0  0  0  0  0  0  0  0  0  0  0
   13.0960  -10.1610   22.3090 C   0  0  0  0  0  0  0  0  0  0  0  0
   12.2840  -10.1950   23.4950 C   0  0  0  0  0  0  0  0  0  0  0  0
   11.5040  -11.3370   23.8990 C   0  0  0  0  0  0  0  0  0  0  0  0
   12.3340  -12.4970   21.9000 C   0  0  0  0  0  0  0  0  0  0  0  0
   11.5100  -12.5220   23.0980 C   0  0  0  0  0  0  0  0  0  0  0  0
   18.8320  -17.8780   26.5420 F   0  0  0  0  0  0  0  0  0  0  0  0
   17.6180  -16.0780   26.6550 F   0  0  0  0  0  0  0  0  0  0  0  0
   12.2380   -8.7570   24.4850 Cl  0  0  0  0  0  0  0  0  0  0  0  0
   20.7720  -17.8030   24.7230 O   0  0  0  0  0  0  0  0  0  0  0  0
   13.2350  -15.7030   20.5450 N   0  0  0  0  0  0  0  0  0  0  0  0
   12.3840  -15.2320   19.8030 N   0  0  0  0  0  0  0  0  0  0  0  0
   11.9670  -14.1020   20.2010 N   0  0  0  0  0  0  0  0  0  0  0  0
   12.4750  -13.6680   21.2150 N   0  0  0  0  0  0  0  0  0  0  0  0
   13.3510  -14.7260   21.5840 C   0  0  0  0  0  0  0  0  0  0  0  0
  2  1  2  0
  6  1  1  0
  3  2  1  0
  7  2  1  0
  4  3  2  0
 32  3  1  0
  5  4  1  0
  6  5  2  0
  8  7  1  0
 29  7  1  0
 30  7  1  0
  9  8  1  0
 10  9  1  0
 11 10  1  0
 15 10  2  0
 12 11  1  0
 16 11  2  0
 13 12  1  0
 18 12  1  0
 14 13  2  0
 17 13  1  0
 15 14  1  0
 19 18  1  0
 20 19  1  0
 21 19  2  0
 22 20  1  0
 23 22  1  0
 24 23  2  0
 27 23  1  0
 25 24  1  0
 26 25  2  0
 31 25  1  0
 28 26  1  0
 28 27  2  0
 36 27  1  0
 34 33  1  0
 37 33  2  0
 35 34  2  0
 36 35  1  0
 37 36  1  0
M  CHG  2   3   1  32  -1
A    1
C8
A    2
C2
A    3
N1
A    4
C4
A    5
C5
A    6
C6
A    7
C11
A    8
C1
A    9
N18
A   10
C21
A   11
C22
A   12
N23
A   13
C24
A   14
C25
A   15
N3
A   16
O28
A   17
CL2
A   18
C33
A   19
C34
A   20
N37
A   21
O38
A   22
C39
A   23
C40
A   24
C43
A   25
C44
A   26
C45
A   27
C50
A   28
C47
A   29
F1
A   30
F2
A   31
CL1
A   32
O1
A   33
N14
A   34
N13
A   35
N12
A   36
N11
A   37
C46
M  END
>  <Id>  (158) 
1SL3_170_A_1001

>  <ChainId>  (158) 
A

>  <AsymId>  (158) 
C

>  <SeqNum>  (158) 
1001

>  <Name>  (158) 
(2-[6-CHLORO-3-{[2,2-DIFLUORO-2-(1-OXIDOPYRIDIN-2-YL)ETHYL]AMINO}-2-OXOPYRAZIN-1(2H)-YL]-N-[5-CHLORO-2-(1H-TETRAZOL-1-YL)BENZYL]ACETAMIDE

>  <SystematicName>  (158) 
2-[6-chloro-3-[[2,2-difluoro-2-(1-oxidopyridin-1-ium-2-yl)ethyl]amino]-2-oxo-pyrazin-1-yl]-N-[[5-chloro-2-(1,2,3,4-tetrazol-1-yl)phenyl]methyl]ethanamide

>  <Synonyms>  (158) 


>  <Type>  (158) 
NON-POLYMER

>  <Formula>  (158) 
C21 H17 Cl2 F2 N9 O3

>  <ObservedFormula>  (158) 
C21 F2 Cl2 N9 O3

>  <MolecularWeight>  (158) 
552.321

>  <ModifiedDate>  (158) 
2011-06-04

>  <Parent>  (158) 


>  <OneLetterCode>  (158) 


>  <SubcomponentList>  (158) 


>  <AmbiguousFlag>  (158) 
N

>  <InsertionCode>  (158) 


>  <InstanceId>  (158) 
1SL3_170_A_1001

>  <ChemCompId>  (158) 
170

>  <PdbId>  (158) 
1SL3

>  <ResidueNumber>  (158) 
1001

>  <InChI>  (158) 
InChI=1S/C21H17Cl2F2N9O3/c22-14-4-5-15(33-12-29-30-31-33)13(7-14)8-26-18(35)10-32-17(23)9-27-19(20(32)36)28-11-21(24,25)16-3-1-2-6-34(16)37/h1-7,9,12H,8,10-11H2,(H,26,35)(H,27,28)

>  <InChIKey>  (158) 
QOKFRQVFMZFNBC-UHFFFAOYSA-N

>  <SMILES>  (158) 
c1cc[n+](c(c1)C(CNC2=NC=C(N(C2=O)CC(=O)NCc3cc(ccc3n4cnnn4)Cl)Cl)(F)F)[O-]

>  <MissingHeavyAtoms>  (158) 
0

>  <Model>  (158) 
1

>  <AltIds>  (158) 


>  <pKI>  (158) 
11.85

>  <ChemblID>  (158) 
-

>  <standardized_canonical_smiles>  (158) 
O=C(Cn1c(Cl)cnc(NCC(F)(F)c2cccc[n+]2[O-])c1=O)NCc1cc(Cl)ccc1-n1cnnn1

$$$$
1UVS_I11_H_11
     RDKit          3D

 32 34  0  0  0  0  0  0  0  0999 V2000
  -14.2180   71.3980  179.0320 C   0  0  0  0  0  0  0  0  0  0  0  0
  -15.2580   70.4900  178.3270 C   0  0  0  0  0  0  0  0  0  0  0  0
  -14.6890   69.0660  178.1910 C   0  0  0  0  0  0  0  0  0  0  0  0
  -13.4110   69.0900  177.3340 C   0  0  0  0  0  0  0  0  0  0  0  0
  -12.3690   69.9550  178.0720 C   0  0  0  0  0  0  0  0  0  0  0  0
  -12.8880   71.3990  178.2650 C   0  0  0  0  0  0  0  0  0  0  0  0
  -15.9430   67.9520  177.4860 S   0  0  0  0  0  0  0  0  0  0  0  0
  -17.2430   68.2660  178.0360 O   0  0  0  0  0  0  0  0  0  0  0  0
  -15.5690   66.6470  177.9620 O   0  0  0  0  0  0  0  0  0  0  0  0
  -16.1320   67.9780  175.8560 N   0  0  0  0  0  0  0  0  0  0  0  0
  -15.6040   66.9480  175.1880 C   0  0  0  0  0  0  0  0  0  0  0  0
  -14.7440   67.2670  174.0370 C   0  0  0  0  0  0  0  0  0  0  0  0
  -14.6660   68.4630  173.7340 O   0  0  0  0  0  0  0  0  0  0  0  0
  -14.0700   66.2960  173.3860 N   0  0  0  0  0  0  0  0  0  0  0  0
  -13.3320   66.6720  172.1910 C   0  0  0  0  0  0  0  0  0  0  0  0
  -14.0640   66.1050  170.9500 C   0  0  0  0  0  0  0  0  0  0  0  0
  -13.9150   67.0190  169.7090 C   0  0  0  0  0  0  0  0  0  0  0  0
  -14.4510   68.3700  169.8780 N   0  0  0  0  0  0  0  0  0  0  0  0
  -15.6700   68.6850  169.4830 C   0  0  0  0  0  0  0  0  0  0  0  0
  -16.7890   67.9140  169.8150 C   0  0  0  0  0  0  0  0  0  0  0  0
  -18.0460   68.2720  169.2880 C   0  0  0  0  0  0  0  0  0  0  0  0
  -18.2010   69.3070  168.4930 N   0  0  0  0  0  0  0  0  0  0  0  0
  -17.2510   70.2210  168.3850 C   0  0  0  0  0  0  0  0  0  0  0  0
  -15.9320   69.9520  168.7760 C   0  0  0  0  0  0  0  0  0  0  0  0
  -11.8720   66.2470  172.2530 C   0  0  0  0  0  0  0  0  0  0  0  0
  -11.4940   65.2330  171.6780 O   0  0  0  0  0  0  0  0  0  0  0  0
  -11.0460   66.9060  173.1060 N   0  0  0  0  0  0  0  0  0  0  0  0
  -11.0360   68.3670  173.1000 C   0  0  0  0  0  0  0  0  0  0  0  0
  -10.9680   68.8510  174.5720 C   0  0  0  0  0  0  0  0  0  0  0  0
   -9.8430   68.1980  175.4210 C   0  0  0  0  0  0  0  0  0  0  0  0
   -9.1660   67.0120  174.7040 C   0  0  0  0  0  0  0  0  0  0  0  0
  -10.2470   66.1270  174.0530 C   0  0  0  0  0  0  0  0  0  0  0  0
  2  1  1  0
  6  1  1  0
  3  2  1  0
  4  3  1  0
  7  3  1  0
  5  4  1  0
  6  5  1  0
  8  7  2  0
  9  7  2  0
 10  7  1  0
 11 10  1  0
 12 11  1  0
 13 12  2  0
 14 12  1  0
 15 14  1  0
 16 15  1  0
 25 15  1  0
 17 16  1  0
 18 17  1  0
 19 18  1  0
 20 19  2  0
 24 19  1  0
 21 20  1  0
 22 21  2  0
 23 22  1  0
 24 23  2  0
 26 25  2  0
 27 25  1  0
 28 27  1  0
 32 27  1  0
 29 28  1  0
 30 29  1  0
 31 30  1  0
 32 31  1  0
M  CHG  1  22   1
A    1
C1
A    2
C2
A    3
C3
A    4
C4
A    5
C5
A    6
C6
A    7
S19
A    8
O43
A    9
O44
A   10
N20
A   11
C21
A   12
C22
A   13
O42
A   14
N23
A   15
C24
A   16
C25
A   17
C26
A   18
N27
A   19
C28
A   20
C29
A   21
C30
A   22
N31
A   23
C32
A   24
C33
A   25
C34
A   26
O41
A   27
N35
A   28
C36
A   29
C37
A   30
C38
A   31
C39
A   32
C40
M  END
>  <Id>  (159) 
1UVS_I11_H_11

>  <ChainId>  (159) 
H

>  <AsymId>  (159) 
C

>  <SeqNum>  (159) 
11

>  <Name>  (159) 
[[CYCLOHEXANESULFONYL-GLYCYL]-3[PYRIDIN-4-YL-AMINOMETHYL]ALANYL]PIPERIDINE

>  <SystematicName>  (159) 
2-(cyclohexylsulfonylamino)-N-[(2R)-1-oxo-1-piperidin-1-yl-4-(pyridin-1-ium-4-ylamino)butan-2-yl]ethanamide

>  <Synonyms>  (159) 


>  <Type>  (159) 
NON-POLYMER

>  <Formula>  (159) 
C22 H36 N5 O4 S

>  <ObservedFormula>  (159) 
C22 S N5 O4

>  <MolecularWeight>  (159) 
466.617

>  <ModifiedDate>  (159) 
2011-06-04

>  <Parent>  (159) 


>  <OneLetterCode>  (159) 


>  <SubcomponentList>  (159) 


>  <AmbiguousFlag>  (159) 
N

>  <InsertionCode>  (159) 


>  <InstanceId>  (159) 
1UVS_I11_H_11

>  <ChemCompId>  (159) 
I11

>  <PdbId>  (159) 
1UVS

>  <ResidueNumber>  (159) 
11

>  <InChI>  (159) 
InChI=1S/C22H35N5O4S/c28-21(17-25-32(30,31)19-7-3-1-4-8-19)26-20(22(29)27-15-5-2-6-16-27)11-14-24-18-9-12-23-13-10-18/h9-10,12-13,19-20,25H,1-8,11,14-17H2,(H,23,24)(H,26,28)/p+1/t20-/m1/s1

>  <InChIKey>  (159) 
KMUXFASJKPVMGU-HXUWFJFHSA-O

>  <SMILES>  (159) 
c1c[nH+]ccc1NCC[C@H](C(=O)N2CCCCC2)NC(=O)CNS(=O)(=O)C3CCCCC3

>  <MissingHeavyAtoms>  (159) 
0

>  <Model>  (159) 
1

>  <AltIds>  (159) 


>  <pKI>  (159) 
5.4

>  <ChemblID>  (159) 
-

>  <standardized_canonical_smiles>  (159) 
O=C(CNS(=O)(=O)C1CCCCC1)N[C@H](CCNc1cc[nH+]cc1)C(=O)N1CCCCC1

$$$$
1NO9_4ND_H_250
     RDKit          3D

 15 16  0  0  0  0  0  0  0  0999 V2000
   12.5050  -12.1260   21.2680 C   0  0  0  0  0  0  0  0  0  0  0  0
   13.6480  -11.2690   21.3530 C   0  0  0  0  0  0  0  0  0  0  0  0
   13.6720  -10.2510   22.3510 C   0  0  0  0  0  0  0  0  0  0  0  0
   16.7190  -12.8260   21.3890 C   0  0  0  0  0  0  0  0  0  0  0  0
   11.4610  -10.9450   23.1650 C   0  0  0  0  0  0  0  0  0  0  0  0
   14.8240  -11.4450   20.4230 N   0  0  0  0  0  0  0  0  0  0  0  0
   15.2590  -13.8130   19.6580 C   0  0  0  0  0  0  0  0  0  0  0  0
   16.0110  -15.0260   19.7170 C   0  0  0  0  0  0  0  0  0  0  0  0
   11.4230  -11.9600   22.1700 C   0  0  0  0  0  0  0  0  0  0  0  0
   15.2080  -10.4800   19.5460 C   0  0  0  0  0  0  0  0  0  0  0  0
   17.1140  -15.1400   20.6080 C   0  0  0  0  0  0  0  0  0  0  0  0
   17.4730  -14.0430   21.4470 C   0  0  0  0  0  0  0  0  0  0  0  0
   16.2040  -10.6340   18.8130 O   0  0  0  0  0  0  0  0  0  0  0  0
   15.6140  -12.7130   20.4950 C   0  0  0  0  0  0  0  0  0  0  0  0
   12.5840  -10.0910   23.2530 C   0  0  0  0  0  0  0  0  0  0  0  0
  9  1  2  0
  2  3  2  0
  8 11  1  0
 11 12  2  0
 10 13  2  0
  6 14  1  0
 14  4  2  0
 10  6  1  0
  7  8  2  0
  5  9  1  0
 14  7  1  0
  6  2  1  0
 12  4  1  0
 15  5  2  0
  2  1  1  0
  3 15  1  0
A    1
C8
A    2
C3
A    3
C4
A    4
C14
A    5
C6
A    6
N5
A    7
C10
A    8
C11
A    9
C7
A   10
C1
A   11
C12
A   12
C13
A   13
O1
A   14
C9
A   15
C5
M  END
>  <InstanceId>  (160) 
1NO9_4ND

>  <ChemCompId>  (160) 
4ND

>  <PdbId>  (160) 
1NO9

>  <ChainId>  (160) 
H

>  <ResidueNumber>  (160) 
250

>  <InsertionCode>  (160) 
null

>  <Model>  (160) 
1

>  <AltIds>  (160) 


>  <MissingHeavyAtoms>  (160) 
5

>  <ObservedFormula>  (160) 
C13 N O

>  <AsymId>  (160) 
E

>  <SeqNum>  (160) 
250

>  <Name>  (160) 
N4-(N,N-DIPHENYLCARBAMOYL)-AMINOGUANIDINE

>  <SystematicName>  (160) 
3-carbamimidamido-1,1-diphenyl-urea

>  <Synonyms>  (160) 


>  <Type>  (160) 
NON-POLYMER

>  <Formula>  (160) 
C14 H15 N5 O

>  <MolecularWeight>  (160) 
269.302

>  <ModifiedDate>  (160) 
2011-06-04

>  <Parent>  (160) 


>  <OneLetterCode>  (160) 


>  <SubcomponentList>  (160) 


>  <AmbiguousFlag>  (160) 
N

>  <InChI>  (160) 
InChI=1S/C14H15N5O/c15-13(16)17-18-14(20)19(11-7-3-1-4-8-11)12-9-5-2-6-10-12/h1-10H,(H,18,20)(H4,15,16,17)

>  <InChIKey>  (160) 
QLXOHIUDKNRVBZ-UHFFFAOYSA-N

>  <SMILES>  (160) 
c1ccc(cc1)N(c2ccccc2)C(=O)NNC(=N)N

>  <pKI>  (160) 
7.62

>  <ChemblID>  (160) 
-

>  <standardized_canonical_smiles>  (160) 
O=CN(c1ccccc1)c1ccccc1

$$$$
1ZRB_062_A_1001
     RDKit          3D

 35 39  0  0  0  0  0  0  0  0999 V2000
   21.6970  -15.2840   24.6500 N   0  0  0  0  0  0  0  0  0  0  0  0
   21.5320  -16.3180   23.6910 C   0  0  0  0  0  0  0  0  0  0  0  0
   20.1950  -16.4780   23.1920 C   0  0  0  0  0  0  0  0  0  0  0  0
   19.2090  -15.5800   23.6910 C   0  0  0  0  0  0  0  0  0  0  0  0
   19.3940  -14.5580   24.7020 C   0  0  0  0  0  0  0  0  0  0  0  0
   20.7300  -14.4290   25.2220 C   0  0  0  0  0  0  0  0  0  0  0  0
   19.5440  -17.3740   22.2240 C   0  0  0  0  0  0  0  0  0  0  0  0
   18.1410  -17.0040   22.1730 C   0  0  0  0  0  0  0  0  0  0  0  0
   17.8850  -15.7790   23.0080 C   0  0  0  0  0  0  0  0  0  0  0  0
   20.0050  -18.4700   21.3070 C   0  0  0  0  0  0  0  0  0  0  0  0
   19.0030  -19.0760   20.4070 C   0  0  0  0  0  0  0  0  0  0  0  0
   17.5780  -18.6660   20.3520 C   0  0  0  0  0  0  0  0  0  0  0  0
   17.1550  -17.6030   21.2720 C   0  0  0  0  0  0  0  0  0  0  0  0
   16.9680  -16.0540   24.0210 O   0  0  0  0  0  0  0  0  0  0  0  0
   17.4680  -14.4880   22.2190 C   0  0  0  0  0  0  0  0  0  0  0  0
   18.1650  -14.0000   21.1530 N   0  0  0  0  0  0  0  0  0  0  0  0
   17.5730  -12.8150   20.4560 C   0  0  0  0  0  0  0  0  0  0  0  0
   18.2750  -12.7820   19.0930 C   0  0  0  0  0  0  0  0  0  0  0  0
   19.6400  -13.1260   19.6530 C   0  0  0  0  0  0  0  0  0  0  0  0
   19.4760  -14.3420   20.5410 C   0  0  0  0  0  0  0  0  0  0  0  0
   16.0520  -12.7820   20.2950 C   0  0  0  0  0  0  0  0  0  0  0  0
   15.4550  -11.5900   20.4940 N   0  0  0  0  0  0  0  0  0  0  0  0
   14.0110  -11.4660   20.2230 C   0  0  0  0  0  0  0  0  0  0  0  0
   13.1640  -11.4150   21.4630 C   0  0  0  0  0  0  0  0  0  0  0  0
   13.1760  -10.1860   22.1890 C   0  0  0  0  0  0  0  0  0  0  0  0
   12.2680  -10.1070   23.3100 C   0  0  0  0  0  0  0  0  0  0  0  0
   11.3730  -11.1800   23.6850 C   0  0  0  0  0  0  0  0  0  0  0  0
   11.3860  -12.4270   22.9550 C   0  0  0  0  0  0  0  0  0  0  0  0
   12.3030  -12.5010   21.8470 C   0  0  0  0  0  0  0  0  0  0  0  0
   12.2830   -8.6500   24.3060 Cl  0  0  0  0  0  0  0  0  0  0  0  0
   12.2760  -13.7690   21.0110 C   0  0  0  0  0  0  0  0  0  0  0  0
   13.2250  -14.7730   21.4900 N   0  0  0  0  0  0  0  0  0  0  0  0
   22.8830  -14.9350   24.9980 O   0  0  0  0  0  0  0  0  0  0  0  0
   16.4620  -13.8900   22.5940 O   0  0  0  0  0  0  0  0  0  0  0  0
   15.4320  -13.8010   20.0020 O   0  0  0  0  0  0  0  0  0  0  0  0
  2  1  2  0
  6  1  1  0
 33  1  1  0
  3  2  1  0
  4  3  2  0
  7  3  1  0
  5  4  1  0
  9  4  1  0
  6  5  2  0
  8  7  2  0
 10  7  1  0
  9  8  1  0
 13  8  1  0
 14  9  1  0
 15  9  1  0
 11 10  2  0
 12 11  1  0
 13 12  2  0
 16 15  1  0
 34 15  2  0
 17 16  1  0
 20 16  1  0
 18 17  1  0
 21 17  1  0
 19 18  1  0
 20 19  1  0
 22 21  1  0
 35 21  2  0
 23 22  1  0
 24 23  1  0
 25 24  2  0
 29 24  1  0
 26 25  1  0
 27 26  2  0
 30 26  1  0
 28 27  1  0
 29 28  2  0
 31 29  1  0
 32 31  1  0
M  CHG  2   1   1  33  -1
A    1
N1
A    2
C2
A    3
C3
A    4
C4
A    5
C5
A    6
C6
A    7
C10
A    8
C11
A    9
C12
A   10
C13
A   11
C14
A   12
C15
A   13
C16
A   14
O21
A   15
C22
A   16
N23
A   17
C24
A   18
C25
A   19
C26
A   20
C27
A   21
C34
A   22
N36
A   23
C37
A   24
C38
A   25
C41
A   26
C42
A   27
C43
A   28
C44
A   29
C45
A   30
CL1
A   31
C53
A   32
N54
A   33
O60
A   34
O63
A   35
O64
M  END
>  <Id>  (161) 
1ZRB_062_A_1001

>  <ChainId>  (161) 
A

>  <AsymId>  (161) 
C

>  <SeqNum>  (161) 
1001

>  <Name>  (161) 
3-AZA-9-HYDROXY-9-FLUORENYLCARBONYL-L-PROLYL-2-AMINOMETHYL-5-CHLOROBENZYLAMIDE, N-OXIDE

>  <SystematicName>  (161) 
(2S)-N-[[2-(aminomethyl)-5-chloro-phenyl]methyl]-1-[(5R)-5-hydroxy-2-oxido-indeno[3,2-c]pyridin-2-ium-5-yl]carbonyl-pyrrolidine-2-carboxamide

>  <Synonyms>  (161) 


>  <Type>  (161) 
NON-POLYMER

>  <Formula>  (161) 
C26 H25 Cl N4 O4

>  <ObservedFormula>  (161) 
C26 Cl N4 O4

>  <MolecularWeight>  (161) 
492.954

>  <ModifiedDate>  (161) 
2011-06-04

>  <Parent>  (161) 


>  <OneLetterCode>  (161) 


>  <SubcomponentList>  (161) 


>  <AmbiguousFlag>  (161) 
N

>  <InsertionCode>  (161) 


>  <InstanceId>  (161) 
1ZRB_062_A_1001

>  <ChemCompId>  (161) 
062

>  <PdbId>  (161) 
1ZRB

>  <ResidueNumber>  (161) 
1001

>  <InChI>  (161) 
InChI=1S/C26H25ClN4O4/c27-18-8-7-16(13-28)17(12-18)14-29-24(32)23-6-3-10-31(23)25(33)26(34)21-5-2-1-4-19(21)20-15-30(35)11-9-22(20)26/h1-2,4-5,7-9,11-12,15,23,34H,3,6,10,13-14,28H2,(H,29,32)/t23-,26+/m0/s1

>  <InChIKey>  (161) 
GVACNUIKZUGUGU-JYFHCDHNSA-N

>  <SMILES>  (161) 
c1ccc2c(c1)-c3c[n+](ccc3[C@]2(C(=O)N4CCC[C@H]4C(=O)NCc5cc(ccc5CN)Cl)O)[O-]

>  <MissingHeavyAtoms>  (161) 
0

>  <Model>  (161) 
1

>  <AltIds>  (161) 


>  <pKI>  (161) 
9.11

>  <ChemblID>  (161) 
-

>  <standardized_canonical_smiles>  (161) 
NCc1ccc(Cl)cc1CNC(=O)[C@@H]1CCCN1C(=O)[C@@]1(O)c2ccccc2-c2c[n+]([O-])ccc21

$$$$
1C1U_BAI_H_410
     RDKit          3D

 22 25  0  0  0  0  0  0  0  0999 V2000
   11.7700  -11.8410   23.0670 C   0  0  0  0  0  0  0  0  0  0  0  0
   12.2330  -10.6420   22.4680 C   0  0  0  0  0  0  0  0  0  0  0  0
   13.2390  -10.6310   21.4990 C   0  0  0  0  0  0  0  0  0  0  0  0
   13.7490  -11.8610   21.1600 C   0  0  0  0  0  0  0  0  0  0  0  0
   13.3230  -13.0070   21.7150 C   0  0  0  0  0  0  0  0  0  0  0  0
   12.3410  -13.0620   22.6640 C   0  0  0  0  0  0  0  0  0  0  0  0
   10.8040  -11.8370   24.0380 C   0  0  0  0  0  0  0  0  0  0  0  0
   14.8610  -13.4670   20.3290 C   0  0  0  0  0  0  0  0  0  0  0  0
   15.9340  -14.2920   19.4750 C   0  0  0  0  0  0  0  0  0  0  0  0
   10.1410  -12.9340   24.2920 N   0  0  0  0  0  0  0  0  0  0  0  0
   10.5790  -10.7240   24.6980 N   0  0  0  0  0  0  0  0  0  0  0  0
   14.6910  -12.1700   20.3150 N   0  0  0  0  0  0  0  0  0  0  0  0
   14.0170  -13.9780   21.1910 N   0  0  0  0  0  0  0  0  0  0  0  0
   17.0350  -11.5170   14.3500 C   0  0  0  0  0  0  0  0  0  0  0  0
   16.5210  -12.6870   13.7390 C   0  0  0  0  0  0  0  0  0  0  0  0
   16.0800  -13.7840   14.5190 C   0  0  0  0  0  0  0  0  0  0  0  0
   16.1790  -13.6390   15.8930 C   0  0  0  0  0  0  0  0  0  0  0  0
   16.6740  -12.5160   16.4540 C   0  0  0  0  0  0  0  0  0  0  0  0
   17.1190  -11.4190   15.7430 C   0  0  0  0  0  0  0  0  0  0  0  0
   16.1400  -13.8320   17.9970 C   0  0  0  0  0  0  0  0  0  0  0  0
   15.8530  -14.4540   16.8710 N   0  0  0  0  0  0  0  0  0  0  0  0
   16.6380  -12.6680   17.7390 N   0  0  0  0  0  0  0  0  0  0  0  0
  2  1  2  0
  6  1  1  0
  7  1  1  0
  3  2  1  0
  4  3  2  0
  5  4  1  0
 12  4  1  0
  6  5  2  0
 13  5  1  0
 10  7  1  0
 11  7  2  0
  9  8  1  0
 12  8  1  0
 13  8  2  0
 20  9  1  0
 15 14  2  0
 19 14  1  0
 16 15  1  0
 17 16  2  0
 18 17  1  0
 21 17  1  0
 19 18  2  0
 22 18  1  0
 21 20  1  0
 22 20  2  0
A    1
C1
A    2
C2
A    3
C3
A    4
C4
A    5
C5
A    6
C6
A    7
C7
A    8
C8
A    9
C9
A   10
N1
A   11
N2
A   12
N3
A   13
N4
A   14
C1'
A   15
C2'
A   16
C3'
A   17
C4'
A   18
C5'
A   19
C6'
A   20
C8'
A   21
N3'
A   22
N4'
M  END
>  <Id>  (162) 
1C1U_BAI_H_410

>  <ChainId>  (162) 
H

>  <AsymId>  (162) 
F

>  <SeqNum>  (162) 
410

>  <Name>  (162) 
(5-AMIDINO-2-BENZIMIDAZOLYL)(2-BENZIMIDAZOLYL)METHANE

>  <SystematicName>  (162) 
2-(1H-benzimidazol-2-ylmethyl)-1H-benzimidazole-5-carboximidamide

>  <Synonyms>  (162) 
HEMI-BABIM

>  <Type>  (162) 
NON-POLYMER

>  <Formula>  (162) 
C16 H14 N6

>  <ObservedFormula>  (162) 
C16 N6

>  <MolecularWeight>  (162) 
290.323

>  <ModifiedDate>  (162) 
2011-06-04

>  <Parent>  (162) 


>  <OneLetterCode>  (162) 


>  <SubcomponentList>  (162) 


>  <AmbiguousFlag>  (162) 
N

>  <InsertionCode>  (162) 


>  <InstanceId>  (162) 
1C1U_BAI_H_410

>  <ChemCompId>  (162) 
BAI

>  <PdbId>  (162) 
1C1U

>  <ResidueNumber>  (162) 
410

>  <InChI>  (162) 
InChI=1S/C16H14N6/c17-16(18)9-5-6-12-13(7-9)22-15(21-12)8-14-19-10-3-1-2-4-11(10)20-14/h1-7H,8H2,(H3,17,18)(H,19,20)(H,21,22)

>  <InChIKey>  (162) 
KKJYVDXDZURHMA-UHFFFAOYSA-N

>  <SMILES>  (162) 
c1ccc2c(c1)[nH]c(n2)Cc3[nH]c4ccc(cc4n3)C(=N)N

>  <MissingHeavyAtoms>  (162) 
0

>  <Model>  (162) 
1

>  <AltIds>  (162) 


>  <pKI>  (162) 
8.25

>  <ChemblID>  (162) 
-

>  <standardized_canonical_smiles>  (162) 
N=C(N)c1ccc2[nH]c(Cc3nc4ccccc4[nH]3)nc2c1

$$$$
1C4U_IH1_2_370
     RDKit          3D

 36 39  0  0  0  0  0  0  0  0999 V2000
   21.9140  -15.0870   25.5810 C   0  0  0  0  0  0  0  0  0  0  0  0
   21.0480  -14.3190   26.2120 C   0  0  0  0  0  0  0  0  0  0  0  0
   19.8910  -14.9510   26.5140 C   0  0  0  0  0  0  0  0  0  0  0  0
   19.6460  -16.2650   26.1410 C   0  0  0  0  0  0  0  0  0  0  0  0
   20.5030  -16.9760   25.4410 C   0  0  0  0  0  0  0  0  0  0  0  0
   21.6750  -16.3910   25.1330 C   0  0  0  0  0  0  0  0  0  0  0  0
   23.4420  -14.3210   25.1250 Br  0  0  0  0  0  0  0  0  0  0  0  0
   18.1600  -17.1020   26.4320 S   0  0  0  0  0  0  0  0  0  0  0  0
   17.2280  -16.0250   26.7360 O   0  0  0  0  0  0  0  0  0  0  0  0
   18.4440  -17.9820   27.5840 O   0  0  0  0  0  0  0  0  0  0  0  0
   17.6480  -17.9860   25.0220 C   0  0  0  0  0  0  0  0  0  0  0  0
   17.0590  -17.1230   23.8100 C   0  0  0  0  0  0  0  0  0  0  0  0
   18.4770  -13.0140   21.7470 C   0  0  0  0  0  0  0  0  0  0  0  0
   19.7290  -12.8770   21.1120 C   0  0  0  0  0  0  0  0  0  0  0  0
   20.6890  -13.7440   20.8150 C   0  0  0  0  0  0  0  0  0  0  0  0
   20.4550  -15.1580   21.2980 C   0  0  0  0  0  0  0  0  0  0  0  0
   19.0290  -16.4530   22.6890 C   0  0  0  0  0  0  0  0  0  0  0  0
   17.5700  -14.8640   23.0450 C   0  0  0  0  0  0  0  0  0  0  0  0
   19.2900  -15.2970   21.9610 N   0  0  0  0  0  0  0  0  0  0  0  0
   18.5340  -14.2870   22.4350 N   0  0  0  0  0  0  0  0  0  0  0  0
   16.5860  -14.3920   23.3750 O   0  0  0  0  0  0  0  0  0  0  0  0
   19.7750  -17.4080   22.5830 O   0  0  0  0  0  0  0  0  0  0  0  0
   17.8950  -16.2050   23.2180 N   0  0  0  0  0  0  0  0  0  0  0  0
   17.1880  -12.6810   20.7050 C   0  0  0  0  0  0  0  0  0  0  0  0
   17.3750  -12.1980   19.5280 O   0  0  0  0  0  0  0  0  0  0  0  0
   14.8760  -12.1880   20.4480 C   0  0  0  0  0  0  0  0  0  0  0  0
   13.6350  -12.0180   21.1120 C   0  0  0  0  0  0  0  0  0  0  0  0
   13.1260  -10.6710   21.5830 C   0  0  0  0  0  0  0  0  0  0  0  0
   11.9440  -10.7790   22.3690 C   0  0  0  0  0  0  0  0  0  0  0  0
   12.2410  -11.6020   23.7210 C   0  0  0  0  0  0  0  0  0  0  0  0
   12.5930  -12.9820   23.0890 C   0  0  0  0  0  0  0  0  0  0  0  0
   15.8230  -12.4690   20.9900 N   0  0  0  0  0  0  0  0  0  0  0  0
   13.5510  -13.1730   22.1480 C   0  0  0  0  0  0  0  0  0  0  0  0
   10.9750  -11.8100   24.2710 C   0  0  0  0  0  0  0  0  0  0  0  0
   10.3730  -12.9340   24.2100 N   0  0  0  0  0  0  0  0  0  0  0  0
   10.4990  -10.8270   24.9970 N   0  0  0  0  0  0  0  0  0  0  0  0
  2  1  2  0
  6  1  1  0
  7  1  1  0
  3  2  1  0
  4  3  2  0
  5  4  1  0
  8  4  1  0
  6  5  2  0
  9  8  2  0
 10  8  2  0
 11  8  1  0
 12 11  1  0
 23 12  1  0
 14 13  1  0
 20 13  1  0
 24 13  1  0
 15 14  2  0
 16 15  1  0
 19 16  1  0
 19 17  1  0
 22 17  2  0
 23 17  1  0
 20 18  1  0
 21 18  2  0
 23 18  1  0
 20 19  1  0
 25 24  2  0
 32 24  1  0
 27 26  1  0
 32 26  1  0
 28 27  1  0
 33 27  1  0
 29 28  1  0
 30 29  1  0
 31 30  1  0
 34 30  1  0
 33 31  1  0
 35 34  1  0
 36 34  2  0
A    1
C27
A    2
C28
A    3
C29
A    4
C24
A    5
C25
A    6
C26
A    7
BR
A    8
S
A    9
O1
A   10
O2
A   11
C23
A   12
C22
A   13
C13
A   14
C14
A   15
C15
A   16
C16
A   17
C19
A   18
C21
A   19
N17
A   20
N18
A   21
O21
A   22
O19
A   23
N20
A   24
C12
A   25
O12
A   26
C1
A   27
C2
A   28
C3
A   29
C4
A   30
C5
A   31
C6
A   32
N9
A   33
C7
A   34
C8
A   35
N11
A   36
N10
M  END
>  <Id>  (163) 
1C4U_IH1_2_370

>  <ChainId>  (163) 
2

>  <AsymId>  (163) 
E

>  <SeqNum>  (163) 
370

>  <Name>  (163) 
2-[2-(4-BROMO-BENZENESULFONYL)-ETHYL]-1-3-DIOXO-2,3,5,8-TETRAHYDRO-1H-[1,2,4]TRIAZOLO[1,2-A]PYRIDAZINE-5-CARBOXYLIC ACID(4-CARBAMIMIDOYL-CYCLOHEXYLMETHYL)-AMIDE

>  <SystematicName>  (163) 
(8S)-2-[2-(4-bromophenyl)sulfonylethyl]-N-[(4-carbamimidoylcyclohexyl)methyl]-1,3-dioxo-5,8-dihydro-[1,2,4]triazolo[1,2-a]pyridazine-8-carboxamide

>  <Synonyms>  (163) 


>  <Type>  (163) 
NON-POLYMER

>  <Formula>  (163) 
C23 H29 Br N6 O5 S

>  <ObservedFormula>  (163) 
Br C23 S N6 O5

>  <MolecularWeight>  (163) 
581.483

>  <ModifiedDate>  (163) 
2011-06-04

>  <Parent>  (163) 


>  <OneLetterCode>  (163) 


>  <SubcomponentList>  (163) 


>  <AmbiguousFlag>  (163) 
N

>  <InsertionCode>  (163) 


>  <InstanceId>  (163) 
1C4U_IH1_2_370

>  <ChemCompId>  (163) 
IH1

>  <PdbId>  (163) 
1C4U

>  <ResidueNumber>  (163) 
370

>  <InChI>  (163) 
InChI=1S/C23H29BrN6O5S/c24-17-7-9-18(10-8-17)36(34,35)13-12-28-22(32)29-11-1-2-19(30(29)23(28)33)21(31)27-14-15-3-5-16(6-4-15)20(25)26/h1-2,7-10,15-16,19H,3-6,11-14H2,(H3,25,26)(H,27,31)/t15-,16-,19-/m0/s1

>  <InChIKey>  (163) 
CAGDDDRYEVLPOJ-BXWFABGCSA-N

>  <SMILES>  (163) 
c1cc(ccc1S(=O)(=O)CCN2C(=O)N3CC=C[C@H](N3C2=O)C(=O)NCC4CCC(CC4)C(=N)N)Br

>  <MissingHeavyAtoms>  (163) 
0

>  <Model>  (163) 
1

>  <AltIds>  (163) 


>  <pKI>  (163) 
10.37

>  <ChemblID>  (163) 
-

>  <standardized_canonical_smiles>  (163) 
N=C(N)[C@H]1CC[C@H](CNC(=O)[C@@H]2C=CCn3c(=O)n(CCS(=O)(=O)c4ccc(Br)cc4)c(=O)n32)CC1

$$$$
1C4V_IH2_2_370
     RDKit          3D

 39 43  0  0  0  0  0  0  0  0999 V2000
   15.6250  -11.6940   20.2060 N   0  0  0  0  0  0  0  0  0  0  0  0
   14.1860  -11.5310   19.5180 C   0  0  0  0  0  0  0  0  0  0  0  0
   10.2180  -12.9830   24.1760 N   0  0  0  0  0  0  0  0  0  0  0  0
   10.6020  -10.7300   24.4190 N   0  0  0  0  0  0  0  0  0  0  0  0
   10.8990  -11.9170   23.8410 C   0  0  0  0  0  0  0  0  0  0  0  0
   13.1850  -11.6740   20.4640 C   0  0  0  0  0  0  0  0  0  0  0  0
   13.7120  -12.7260   21.4900 C   0  0  0  0  0  0  0  0  0  0  0  0
   12.5460  -13.0470   22.2850 C   0  0  0  0  0  0  0  0  0  0  0  0
   11.8540  -11.8170   22.8470 C   0  0  0  0  0  0  0  0  0  0  0  0
   12.1720  -10.5150   22.2700 C   0  0  0  0  0  0  0  0  0  0  0  0
   12.9000  -10.2960   21.0900 C   0  0  0  0  0  0  0  0  0  0  0  0
   19.7730  -14.6910   20.1140 C   0  0  0  0  0  0  0  0  0  0  0  0
   19.0050  -14.8790   21.2240 N   0  0  0  0  0  0  0  0  0  0  0  0
   18.7480  -16.0820   21.7820 C   0  0  0  0  0  0  0  0  0  0  0  0
   19.1860  -17.2120   21.6330 O   0  0  0  0  0  0  0  0  0  0  0  0
   17.8360  -15.8460   22.6800 N   0  0  0  0  0  0  0  0  0  0  0  0
   17.4990  -14.5170   22.6330 C   0  0  0  0  0  0  0  0  0  0  0  0
   16.7080  -14.0560   23.3090 O   0  0  0  0  0  0  0  0  0  0  0  0
   18.2500  -13.9370   21.7670 N   0  0  0  0  0  0  0  0  0  0  0  0
   17.8250  -12.8060   20.9100 C   0  0  0  0  0  0  0  0  0  0  0  0
   18.8360  -12.4240   20.0590 C   0  0  0  0  0  0  0  0  0  0  0  0
   19.5620  -13.2920   19.4610 C   0  0  0  0  0  0  0  0  0  0  0  0
   16.3400  -12.8150   20.3230 C   0  0  0  0  0  0  0  0  0  0  0  0
   20.5540  -12.7780   18.6040 C   0  0  0  0  0  0  0  0  0  0  0  0
   15.7340  -14.0720   20.0910 O   0  0  0  0  0  0  0  0  0  0  0  0
   17.3950  -16.8760   23.5280 C   0  0  0  0  0  0  0  0  0  0  0  0
   18.0830  -16.5670   24.9160 C   0  0  0  0  0  0  0  0  0  0  0  0
   22.1980  -14.6010   25.6620 C   0  0  0  0  0  0  0  0  0  0  0  0
   21.1550  -13.9530   26.0430 C   0  0  0  0  0  0  0  0  0  0  0  0
   19.8110  -14.5350   25.7810 C   0  0  0  0  0  0  0  0  0  0  0  0
   19.4720  -15.8040   25.1090 C   0  0  0  0  0  0  0  0  0  0  0  0
   20.5370  -16.4480   24.7200 C   0  0  0  0  0  0  0  0  0  0  0  0
   21.8850  -15.8620   24.9490 C   0  0  0  0  0  0  0  0  0  0  0  0
   17.7030  -19.2430   28.1470 C   0  0  0  0  0  0  0  0  0  0  0  0
   18.5600  -19.6230   26.9910 C   0  0  0  0  0  0  0  0  0  0  0  0
   18.5770  -18.7990   25.9180 C   0  0  0  0  0  0  0  0  0  0  0  0
   17.7950  -17.5990   25.9330 C   0  0  0  0  0  0  0  0  0  0  0  0
   16.9110  -17.2940   27.0850 C   0  0  0  0  0  0  0  0  0  0  0  0
   16.8870  -18.1090   28.2000 C   0  0  0  0  0  0  0  0  0  0  0  0
  2  1  1  0
 23  1  1  0
  6  2  1  0
  5  3  1  0
  5  4  2  0
  9  5  1  0
  7  6  1  0
 11  6  1  0
  8  7  1  0
  9  8  1  0
 10  9  1  0
 11 10  1  0
 13 12  1  0
 22 12  1  0
 14 13  1  0
 19 13  1  0
 15 14  2  0
 16 14  1  0
 17 16  1  0
 26 16  1  0
 18 17  2  0
 19 17  1  0
 20 19  1  0
 21 20  1  0
 23 20  1  0
 22 21  2  0
 24 22  1  0
 25 23  2  0
 27 26  1  0
 31 27  1  0
 37 27  1  0
 29 28  2  0
 33 28  1  0
 30 29  1  0
 31 30  2  0
 32 31  1  0
 33 32  2  0
 35 34  2  0
 39 34  1  0
 36 35  1  0
 37 36  2  0
 38 37  1  0
 39 38  2  0
A    1
N9
A    2
C1
A    3
N10
A    4
N11
A    5
C8
A    6
C2
A    7
C7
A    8
C6
A    9
C5
A   10
C4
A   11
C3
A   12
C17
A   13
N18
A   14
C20
A   15
O20
A   16
N21
A   17
C22
A   18
O22
A   19
N19
A   20
C13
A   21
C14
A   22
C15
A   23
C12
A   24
C16
A   25
O12
A   26
C23
A   27
C24
A   28
C28
A   29
C29
A   30
C30
A   31
C25
A   32
C26
A   33
C27
A   34
C34
A   35
C35
A   36
C36
A   37
C31
A   38
C32
A   39
C33
M  END
>  <Id>  (164) 
1C4V_IH2_2_370

>  <ChainId>  (164) 
2

>  <AsymId>  (164) 
E

>  <SeqNum>  (164) 
370

>  <Name>  (164) 
2-(2,2-DIPHENYL-ETHYL)-7-METHYL-1,3-DIOXO-2,3,5,8-TETRAHYDRO-1H-[1,2,4]TRIAZOLO [1,2-A]PYRIDAZINE-5-CARBOXYLIC ACID(4-CARBAMIMIDOYL-CYCLOHEXYLMETHYL)-AMIDE

>  <SystematicName>  (164) 
(8S)-N-[(4-carbamimidoylcyclohexyl)methyl]-2-(2,2-diphenylethyl)-6-methyl-1,3-dioxo-5,8-dihydro-[1,2,4]triazolo[1,2-a]pyridazine-8-carboxamide

>  <Synonyms>  (164) 


>  <Type>  (164) 
NON-POLYMER

>  <Formula>  (164) 
C30 H36 N6 O3

>  <ObservedFormula>  (164) 
C30 N6 O3

>  <MolecularWeight>  (164) 
528.645

>  <ModifiedDate>  (164) 
2011-06-04

>  <Parent>  (164) 


>  <OneLetterCode>  (164) 


>  <SubcomponentList>  (164) 


>  <AmbiguousFlag>  (164) 
N

>  <InsertionCode>  (164) 


>  <InstanceId>  (164) 
1C4V_IH2_2_370

>  <ChemCompId>  (164) 
IH2

>  <PdbId>  (164) 
1C4V

>  <ResidueNumber>  (164) 
370

>  <InChI>  (164) 
InChI=1S/C30H36N6O3/c1-20-16-26(28(37)33-17-21-12-14-24(15-13-21)27(31)32)36-30(39)34(29(38)35(36)18-20)19-25(22-8-4-2-5-9-22)23-10-6-3-7-11-23/h2-11,16,21,24-26H,12-15,17-19H2,1H3,(H3,31,32)(H,33,37)/t21-,24-,26-/m0/s1

>  <InChIKey>  (164) 
HKVVMQTWGPLJEV-CVJWPJSTSA-N

>  <SMILES>  (164) 
[H]/N=C(\C1CCC(CC1)CNC(=O)[C@@H]2C=C(CN3N2C(=O)N(C3=O)CC(c4ccccc4)c5ccccc5)C)/N

>  <MissingHeavyAtoms>  (164) 
0

>  <Model>  (164) 
1

>  <AltIds>  (164) 


>  <pKI>  (164) 
10.8

>  <ChemblID>  (164) 
-

>  <standardized_canonical_smiles>  (164) 
CC1=C[C@@H](C(=O)NC[C@H]2CC[C@H](C(=N)N)CC2)n2c(=O)n(CC(c3ccccc3)c3ccccc3)c(=O)n2C1

$$$$
1C4Y_IH3_2_370
     RDKit          3D

 41 46  0  0  0  0  0  0  0  0999 V2000
   25.3450   48.5910   -4.8320 C   0  0  0  0  0  0  0  0  0  0  0  0
   24.5070   48.3160   -3.7520 N   0  0  0  0  0  0  0  0  0  0  0  0
   23.4470   47.6070   -4.1920 C   0  0  0  0  0  0  0  0  0  0  0  0
   23.5970   47.4300   -5.5070 N   0  0  0  0  0  0  0  0  0  0  0  0
   24.7420   48.0160   -5.9250 C   0  0  0  0  0  0  0  0  0  0  0  0
   22.4400   47.1610   -3.4600 N   0  0  0  0  0  0  0  0  0  0  0  0
   29.0620   50.8460   -4.2020 N   0  0  0  0  0  0  0  0  0  0  0  0
   27.5850   51.6060   -5.7600 C   0  0  0  0  0  0  0  0  0  0  0  0
   29.0090   50.9550   -5.4390 C   0  0  0  0  0  0  0  0  0  0  0  0
   28.9780   49.4540   -5.8540 C   0  0  0  0  0  0  0  0  0  0  0  0
   27.6040   48.7000   -5.8170 C   0  0  0  0  0  0  0  0  0  0  0  0
   26.5890   49.3250   -4.7690 C   0  0  0  0  0  0  0  0  0  0  0  0
   26.3500   50.7830   -5.0970 C   0  0  0  0  0  0  0  0  0  0  0  0
   33.0760   49.0520   -2.2080 N   0  0  0  0  0  0  0  0  0  0  0  0
   33.7510   50.2190   -1.8620 C   0  0  0  0  0  0  0  0  0  0  0  0
   35.0050   50.3120   -1.7280 O   0  0  0  0  0  0  0  0  0  0  0  0
   32.7570   51.1700   -1.6100 N   0  0  0  0  0  0  0  0  0  0  0  0
   31.4860   50.5670   -1.8930 N   0  0  0  0  0  0  0  0  0  0  0  0
   31.7170   49.2640   -2.3030 C   0  0  0  0  0  0  0  0  0  0  0  0
   30.8530   48.4160   -2.5980 O   0  0  0  0  0  0  0  0  0  0  0  0
   32.9110   52.5160   -1.2580 C   0  0  0  0  0  0  0  0  0  0  0  0
   31.5550   53.2470   -1.2270 C   0  0  0  0  0  0  0  0  0  0  0  0
   30.3570   52.6450   -1.4960 C   0  0  0  0  0  0  0  0  0  0  0  0
   30.3380   51.2930   -2.2310 C   0  0  0  0  0  0  0  0  0  0  0  0
   31.5190   54.7610   -0.8680 C   0  0  0  0  0  0  0  0  0  0  0  0
   30.1040   51.4940   -3.6530 C   0  0  0  0  0  0  0  0  0  0  0  0
   30.9070   52.1590   -4.3140 O   0  0  0  0  0  0  0  0  0  0  0  0
   33.4090   46.5440   -1.6680 C   0  0  0  0  0  0  0  0  0  0  0  0
   33.8590   47.5820   -2.6430 C   0  0  0  0  0  0  0  0  0  0  0  0
   33.6170   47.0110   -0.2250 C   0  0  0  0  0  0  0  0  0  0  0  0
   32.4690   46.9980    0.6330 C   0  0  0  0  0  0  0  0  0  0  0  0
   32.5910   47.4670    2.0170 C   0  0  0  0  0  0  0  0  0  0  0  0
   33.8630   47.9730    2.5970 C   0  0  0  0  0  0  0  0  0  0  0  0
   35.0480   48.0040    1.7420 C   0  0  0  0  0  0  0  0  0  0  0  0
   34.9260   47.5260    0.3400 C   0  0  0  0  0  0  0  0  0  0  0  0
   34.0780   45.2040   -2.0160 C   0  0  0  0  0  0  0  0  0  0  0  0
   33.2280   44.1030   -2.4440 C   0  0  0  0  0  0  0  0  0  0  0  0
   33.9040   42.6890   -2.7660 C   0  0  0  0  0  0  0  0  0  0  0  0
   35.3280   42.4150   -2.6510 C   0  0  0  0  0  0  0  0  0  0  0  0
   36.1700   43.5070   -2.2520 C   0  0  0  0  0  0  0  0  0  0  0  0
   35.5900   44.8660   -1.9270 C   0  0  0  0  0  0  0  0  0  0  0  0
  2  1  1  0
  5  1  2  0
 12  1  1  0
  3  2  1  0
  4  3  2  0
  6  3  1  0
  5  4  1  0
  9  7  1  0
 26  7  1  0
  9  8  1  0
 13  8  1  0
 10  9  1  0
 11 10  1  0
 12 11  1  0
 13 12  1  0
 15 14  1  0
 19 14  1  0
 29 14  1  0
 16 15  2  0
 17 15  1  0
 18 17  1  0
 21 17  1  0
 19 18  1  0
 24 18  1  0
 20 19  2  0
 22 21  1  0
 23 22  2  0
 25 22  1  0
 24 23  1  0
 26 24  1  0
 27 26  2  0
 29 28  1  0
 30 28  1  0
 36 28  1  0
 31 30  2  0
 35 30  1  0
 32 31  1  0
 33 32  2  0
 34 33  1  0
 35 34  2  0
 37 36  2  0
 41 36  1  0
 38 37  1  0
 39 38  2  0
 40 39  1  0
 41 40  2  0
A    1
C1
A    2
NC
A    3
C3
A    4
NA
A    5
C2
A    6
NB
A    7
N10
A    8
C7
A    9
C8
A   10
C9
A   11
C4
A   12
C5
A   13
C6
A   14
N20
A   15
C19
A   16
O19
A   17
N17
A   18
N18
A   19
C21
A   20
O21
A   21
C16
A   22
C14
A   23
C13
A   24
C12
A   25
C15
A   26
C11
A   27
O11
A   28
C23
A   29
C22
A   30
C24
A   31
C25
A   32
C26
A   33
C27
A   34
C28
A   35
C29
A   36
C30
A   37
C31
A   38
C32
A   39
C33
A   40
C34
A   41
C35
M  END
>  <Id>  (165) 
1C4Y_IH3_2_370

>  <ChainId>  (165) 
2

>  <AsymId>  (165) 
D

>  <SeqNum>  (165) 
370

>  <Name>  (165) 
2-(2,2-DIPHENYL-ETHYL)-7-METHYL-1,3-DIOXO-2,3,5,8-TETRAHYDRO-1H-[1,2,4] TRIAZOLO[1,2-A]PYRIDAZINE-5-CARBOXYLIC ACID [4-(2-AMINO-3H-IMIDAZOL-4-YL)-CYCLOHEXYL]-AMIDE

>  <SystematicName>  (165) 
(5S)-N-[4-(2-amino-3H-imidazol-4-yl)cyclohexyl]-2-(2,2-diphenylethyl)-7-methyl-1,3-dioxo-5,8-dihydro-[1,2,4]triazolo[1,2-a]pyridazine-5-carboxamide

>  <Synonyms>  (165) 


>  <Type>  (165) 
NON-POLYMER

>  <Formula>  (165) 
C31 H35 N7 O3

>  <ObservedFormula>  (165) 
C31 N7 O3

>  <MolecularWeight>  (165) 
553.655

>  <ModifiedDate>  (165) 
2011-06-04

>  <Parent>  (165) 


>  <OneLetterCode>  (165) 


>  <SubcomponentList>  (165) 


>  <AmbiguousFlag>  (165) 
N

>  <InsertionCode>  (165) 


>  <InstanceId>  (165) 
1C4Y_IH3_2_370

>  <ChemCompId>  (165) 
IH3

>  <PdbId>  (165) 
1C4Y

>  <ResidueNumber>  (165) 
370

>  <InChI>  (165) 
InChI=1S/C31H35N7O3/c1-20-16-27(28(39)34-24-14-12-23(13-15-24)26-17-33-29(32)35-26)38-31(41)36(30(40)37(38)18-20)19-25(21-8-4-2-5-9-21)22-10-6-3-7-11-22/h2-11,16-17,23-25,27H,12-15,18-19H2,1H3,(H,34,39)(H3,32,33,35)/t23-,24-,27-/m0/s1

>  <InChIKey>  (165) 
OVMGNVGMEOUGCS-DPZBCOQUSA-N

>  <SMILES>  (165) 
CC1=C[C@H](N2C(=O)N(C(=O)N2C1)CC(c3ccccc3)c4ccccc4)C(=O)NC5CCC(CC5)c6cnc([nH]6)N

>  <MissingHeavyAtoms>  (165) 
0

>  <Model>  (165) 
1

>  <AltIds>  (165) 


>  <pKI>  (165) 
7.92

>  <ChemblID>  (165) 
-

>  <standardized_canonical_smiles>  (165) 
CC1=C[C@@H](C(=O)N[C@H]2CC[C@H](c3cnc(N)[nH]3)CC2)n2c(=O)n(CC(c3ccccc3)c3ccccc3)c(=O)n2C1

$$$$
