2ITZ_IRE_A_2021
     RDKit          3D

 31 34  0  0  0  0  0  0  0  0999 V2000
  -47.1980   -4.1360  -17.5700 C   0  0  0  0  0  0  0  0  0  0  0  0
  -46.7890   -5.5260  -17.0320 C   0  0  0  0  0  0  0  0  0  0  0  0
  -47.0140   -6.6360  -18.0000 O   0  0  0  0  0  0  0  0  0  0  0  0
  -48.3210   -6.6560  -18.6930 C   0  0  0  0  0  0  0  0  0  0  0  0
  -48.6940   -5.2500  -19.1760 C   0  0  0  0  0  0  0  0  0  0  0  0
  -48.5890   -4.2690  -18.0560 N   0  0  0  0  0  0  0  0  0  0  0  0
  -49.0970   -2.9790  -18.5090 C   0  0  0  0  0  0  0  0  0  0  0  0
  -49.9770   -3.2790  -19.7290 C   0  0  0  0  0  0  0  0  0  0  0  0
  -50.1290   -2.0010  -20.5060 C   0  0  0  0  0  0  0  0  0  0  0  0
  -50.7680   -1.1820  -19.5140 O   0  0  0  0  0  0  0  0  0  0  0  0
  -51.7890   -0.5000  -20.0660 C   0  0  0  0  0  0  0  0  0  0  0  0
  -52.5420    0.3110  -19.2520 C   0  0  0  0  0  0  0  0  0  0  0  0
  -53.6120    1.0440  -19.8070 C   0  0  0  0  0  0  0  0  0  0  0  0
  -52.1660    0.3310  -17.9350 O   0  0  0  0  0  0  0  0  0  0  0  0
  -52.6820    1.4130  -17.0980 C   0  0  0  0  0  0  0  0  0  0  0  0
  -52.0670   -0.6040  -21.4190 C   0  0  0  0  0  0  0  0  0  0  0  0
  -53.1160    0.1170  -21.9750 C   0  0  0  0  0  0  0  0  0  0  0  0
  -53.8940    0.9450  -21.1770 C   0  0  0  0  0  0  0  0  0  0  0  0
  -54.8960    1.6160  -21.7510 N   0  0  0  0  0  0  0  0  0  0  0  0
  -55.1550    1.4940  -23.0500 C   0  0  0  0  0  0  0  0  0  0  0  0
  -54.4370    0.7190  -23.8420 N   0  0  0  0  0  0  0  0  0  0  0  0
  -53.3960    0.0080  -23.3370 C   0  0  0  0  0  0  0  0  0  0  0  0
  -52.6120   -0.8090  -24.0850 N   0  0  0  0  0  0  0  0  0  0  0  0
  -52.6790   -0.8110  -25.4190 C   0  0  0  0  0  0  0  0  0  0  0  0
  -52.7020    0.4180  -26.0960 C   0  0  0  0  0  0  0  0  0  0  0  0
  -52.7880    0.4480  -27.4880 C   0  0  0  0  0  0  0  0  0  0  0  0
  -52.8460    1.9560  -28.3460 Cl  0  0  0  0  0  0  0  0  0  0  0  0
  -52.8460   -0.7480  -28.1910 C   0  0  0  0  0  0  0  0  0  0  0  0
  -52.9230   -0.6730  -29.5270 F   0  0  0  0  0  0  0  0  0  0  0  0
  -52.8180   -1.9870  -27.5250 C   0  0  0  0  0  0  0  0  0  0  0  0
  -52.7350   -2.0260  -26.1310 C   0  0  0  0  0  0  0  0  0  0  0  0
  2  1  1  0
  6  1  1  0
  3  2  1  0
  4  3  1  0
  5  4  1  0
  6  5  1  0
  7  6  1  0
  8  7  1  0
  9  8  1  0
 10  9  1  0
 11 10  1  0
 12 11  2  0
 16 11  1  0
 13 12  1  0
 14 12  1  0
 18 13  2  0
 15 14  1  0
 17 16  2  0
 18 17  1  0
 22 17  1  0
 19 18  1  0
 20 19  1  0
 21 20  2  0
 22 21  1  0
 23 22  2  0
 24 23  1  0
 25 24  2  0
 31 24  1  0
 26 25  1  0
 27 26  1  0
 28 26  2  0
 29 28  1  0
 30 28  1  0
 31 30  2  0
A    1
CAO
A    2
CAL
A    3
OAU
A    4
CAM
A    5
CAP
A    6
NBE
A    7
CAN
A    8
CAJ
A    9
CAK
A   10
OAV
A   11
CBA
A   12
CAZ
A   13
CAH
A   14
OAT
A   15
CAA
A   16
CAI
A   17
C5
A   18
C4
A   19
N3
A   20
C2
A   21
N1
A   22
C6
A   23
NAS
A   24
CAY
A   25
CAG
A   26
CAX
A   27
CL
A   28
CAW
A   29
FAB
A   30
CAD
A   31
CAE
M  END
>  <Id>  (1) 
2ITZ_IRE_A_2021

>  <ChainId>  (1) 
A

>  <AsymId>  (1) 
C

>  <SeqNum>  (1) 
2021

>  <Name>  (1) 
Gefitinib

>  <SystematicName>  (1) 
N-(3-chloro-4-fluoro-phenyl)-7-methoxy-6-(3-morpholin-4-ylpropoxy)-1H-quinazolin-4-imine

>  <Synonyms>  (1) 


>  <Type>  (1) 
NON-POLYMER

>  <Formula>  (1) 
C22 H24 Cl F N4 O3

>  <ObservedFormula>  (1) 
C22 F Cl N4 O3

>  <MolecularWeight>  (1) 
446.902

>  <ModifiedDate>  (1) 
2014-10-07

>  <Parent>  (1) 


>  <OneLetterCode>  (1) 


>  <SubcomponentList>  (1) 


>  <AmbiguousFlag>  (1) 
N

>  <InsertionCode>  (1) 


>  <InstanceId>  (1) 
2ITZ_IRE_A_2021

>  <ChemCompId>  (1) 
IRE

>  <PdbId>  (1) 
2ITZ

>  <ResidueNumber>  (1) 
2021

>  <InChI>  (1) 
InChI=1S/C22H24ClFN4O3/c1-29-20-13-19-16(12-21(20)31-8-2-5-28-6-9-30-10-7-28)22(26-14-25-19)27-15-3-4-18(24)17(23)11-15/h3-4,11-14H,2,5-10H2,1H3,(H,25,26,27)

>  <InChIKey>  (1) 
XGALLCVXEZPNRQ-UHFFFAOYSA-N

>  <SMILES>  (1) 
COc1cc2c(cc1OCCCN3CCOCC3)/C(=N/c4ccc(c(c4)Cl)F)/N=CN2

>  <MissingHeavyAtoms>  (1) 
0

>  <Model>  (1) 
1

>  <AltIds>  (1) 


>  <pKI>  (1) 
9.4

>  <ChemblID>  (1) 
CHEMBL939

>  <standardized_canonical_smiles>  (1) 
COc1cc2ncnc(Nc3ccc(F)c(Cl)c3)c2cc1OCCCN1CCOCC1

$$$$
2ITO_IRE_A_2020
     RDKit          3D

 31 34  0  0  0  0  0  0  0  0999 V2000
  -45.4800   -2.7160  -15.7450 C   0  0  0  0  0  0  0  0  0  0  0  0
  -44.4060   -3.5920  -15.0750 C   0  0  0  0  0  0  0  0  0  0  0  0
  -43.4570   -4.0220  -16.1080 O   0  0  0  0  0  0  0  0  0  0  0  0
  -44.0750   -4.8660  -17.1340 C   0  0  0  0  0  0  0  0  0  0  0  0
  -45.2550   -4.1730  -17.8460 C   0  0  0  0  0  0  0  0  0  0  0  0
  -46.1310   -3.3930  -16.9140 N   0  0  0  0  0  0  0  0  0  0  0  0
  -46.7510   -2.3190  -17.7170 C   0  0  0  0  0  0  0  0  0  0  0  0
  -48.2760   -2.4690  -17.8210 C   0  0  0  0  0  0  0  0  0  0  0  0
  -48.8310   -1.4830  -18.8750 C   0  0  0  0  0  0  0  0  0  0  0  0
  -49.1940   -0.1540  -18.3610 O   0  0  0  0  0  0  0  0  0  0  0  0
  -50.2350    0.4780  -19.0000 C   0  0  0  0  0  0  0  0  0  0  0  0
  -51.1310    1.2010  -18.2160 C   0  0  0  0  0  0  0  0  0  0  0  0
  -52.1950    1.8590  -18.8390 C   0  0  0  0  0  0  0  0  0  0  0  0
  -50.9480    1.2280  -16.8510 O   0  0  0  0  0  0  0  0  0  0  0  0
  -51.1650    2.4870  -16.1950 C   0  0  0  0  0  0  0  0  0  0  0  0
  -50.3990    0.4370  -20.3940 C   0  0  0  0  0  0  0  0  0  0  0  0
  -51.4580    1.1010  -21.0030 C   0  0  0  0  0  0  0  0  0  0  0  0
  -52.3520    1.8070  -20.2220 C   0  0  0  0  0  0  0  0  0  0  0  0
  -53.3700    2.4460  -20.8190 N   0  0  0  0  0  0  0  0  0  0  0  0
  -53.5590    2.4110  -22.1310 C   0  0  0  0  0  0  0  0  0  0  0  0
  -52.7310    1.7450  -22.9050 N   0  0  0  0  0  0  0  0  0  0  0  0
  -51.6810    1.0850  -22.3780 C   0  0  0  0  0  0  0  0  0  0  0  0
  -50.8760    0.4060  -23.1830 N   0  0  0  0  0  0  0  0  0  0  0  0
  -50.9780    0.4720  -24.5090 C   0  0  0  0  0  0  0  0  0  0  0  0
  -50.9250    1.7140  -25.1330 C   0  0  0  0  0  0  0  0  0  0  0  0
  -51.0070    1.8060  -26.5120 C   0  0  0  0  0  0  0  0  0  0  0  0
  -50.9430    3.3600  -27.2400 Cl  0  0  0  0  0  0  0  0  0  0  0  0
  -51.1410    0.6670  -27.2930 C   0  0  0  0  0  0  0  0  0  0  0  0
  -51.2180    0.7930  -28.6340 F   0  0  0  0  0  0  0  0  0  0  0  0
  -51.1890   -0.5850  -26.6740 C   0  0  0  0  0  0  0  0  0  0  0  0
  -51.1030   -0.6820  -25.2800 C   0  0  0  0  0  0  0  0  0  0  0  0
  2  1  1  0
  6  1  1  0
  3  2  1  0
  4  3  1  0
  5  4  1  0
  6  5  1  0
  7  6  1  0
  8  7  1  0
  9  8  1  0
 10  9  1  0
 11 10  1  0
 12 11  2  0
 16 11  1  0
 13 12  1  0
 14 12  1  0
 18 13  2  0
 15 14  1  0
 17 16  2  0
 18 17  1  0
 22 17  1  0
 19 18  1  0
 20 19  1  0
 21 20  2  0
 22 21  1  0
 23 22  2  0
 24 23  1  0
 25 24  2  0
 31 24  1  0
 26 25  1  0
 27 26  1  0
 28 26  2  0
 29 28  1  0
 30 28  1  0
 31 30  2  0
A    1
CAO
A    2
CAL
A    3
OAU
A    4
CAM
A    5
CAP
A    6
NBE
A    7
CAN
A    8
CAJ
A    9
CAK
A   10
OAV
A   11
CBA
A   12
CAZ
A   13
CAH
A   14
OAT
A   15
CAA
A   16
CAI
A   17
C5
A   18
C4
A   19
N3
A   20
C2
A   21
N1
A   22
C6
A   23
NAS
A   24
CAY
A   25
CAG
A   26
CAX
A   27
CL
A   28
CAW
A   29
FAB
A   30
CAD
A   31
CAE
M  END
>  <Id>  (2) 
2ITO_IRE_A_2020

>  <ChainId>  (2) 
A

>  <AsymId>  (2) 
B

>  <SeqNum>  (2) 
2020

>  <Name>  (2) 
Gefitinib

>  <SystematicName>  (2) 
N-(3-chloro-4-fluoro-phenyl)-7-methoxy-6-(3-morpholin-4-ylpropoxy)-1H-quinazolin-4-imine

>  <Synonyms>  (2) 


>  <Type>  (2) 
NON-POLYMER

>  <Formula>  (2) 
C22 H24 Cl F N4 O3

>  <ObservedFormula>  (2) 
C22 F Cl N4 O3

>  <MolecularWeight>  (2) 
446.902

>  <ModifiedDate>  (2) 
2014-10-07

>  <Parent>  (2) 


>  <OneLetterCode>  (2) 


>  <SubcomponentList>  (2) 


>  <AmbiguousFlag>  (2) 
N

>  <InsertionCode>  (2) 


>  <InstanceId>  (2) 
2ITO_IRE_A_2020

>  <ChemCompId>  (2) 
IRE

>  <PdbId>  (2) 
2ITO

>  <ResidueNumber>  (2) 
2020

>  <InChI>  (2) 
InChI=1S/C22H24ClFN4O3/c1-29-20-13-19-16(12-21(20)31-8-2-5-28-6-9-30-10-7-28)22(26-14-25-19)27-15-3-4-18(24)17(23)11-15/h3-4,11-14H,2,5-10H2,1H3,(H,25,26,27)

>  <InChIKey>  (2) 
XGALLCVXEZPNRQ-UHFFFAOYSA-N

>  <SMILES>  (2) 
COc1cc2c(cc1OCCCN3CCOCC3)/C(=N/c4ccc(c(c4)Cl)F)/N=CN2

>  <MissingHeavyAtoms>  (2) 
0

>  <Model>  (2) 
1

>  <AltIds>  (2) 


>  <pKI>  (2) 
9.4

>  <ChemblID>  (2) 
CHEMBL939

>  <standardized_canonical_smiles>  (2) 
COc1cc2ncnc(Nc3ccc(F)c(Cl)c3)c2cc1OCCCN1CCOCC1

$$$$
2ITY_IRE_A_2020
     RDKit          3D

 31 34  0  0  0  0  0  0  0  0999 V2000
  -45.3040   -2.9970  -16.8970 C   0  0  0  0  0  0  0  0  0  0  0  0
  -43.8270   -3.4930  -16.9960 C   0  0  0  0  0  0  0  0  0  0  0  0
  -43.2200   -3.2470  -18.3060 O   0  0  0  0  0  0  0  0  0  0  0  0
  -43.9940   -3.9060  -19.3500 C   0  0  0  0  0  0  0  0  0  0  0  0
  -45.4960   -3.4890  -19.3580 C   0  0  0  0  0  0  0  0  0  0  0  0
  -46.1610   -3.4980  -18.0110 N   0  0  0  0  0  0  0  0  0  0  0  0
  -47.4070   -2.6730  -18.0340 C   0  0  0  0  0  0  0  0  0  0  0  0
  -48.6050   -3.3750  -18.8720 C   0  0  0  0  0  0  0  0  0  0  0  0
  -49.3370   -2.1730  -19.9370 C   0  0  0  0  0  0  0  0  0  0  0  0
  -50.0110   -1.1150  -19.0520 O   0  0  0  0  0  0  0  0  0  0  0  0
  -51.0590   -0.4110  -19.6070 C   0  0  0  0  0  0  0  0  0  0  0  0
  -51.8510    0.3220  -18.7380 C   0  0  0  0  0  0  0  0  0  0  0  0
  -52.9420    1.0520  -19.2100 C   0  0  0  0  0  0  0  0  0  0  0  0
  -51.5280    0.2890  -17.4160 O   0  0  0  0  0  0  0  0  0  0  0  0
  -51.8800    1.5010  -16.6950 C   0  0  0  0  0  0  0  0  0  0  0  0
  -51.3720   -0.4090  -20.9680 C   0  0  0  0  0  0  0  0  0  0  0  0
  -52.4640    0.3240  -21.4520 C   0  0  0  0  0  0  0  0  0  0  0  0
  -53.2450    1.0570  -20.5630 C   0  0  0  0  0  0  0  0  0  0  0  0
  -54.2870    1.7660  -21.0240 N   0  0  0  0  0  0  0  0  0  0  0  0
  -54.5850    1.7670  -22.3190 C   0  0  0  0  0  0  0  0  0  0  0  0
  -53.8690    1.0820  -23.2060 N   0  0  0  0  0  0  0  0  0  0  0  0
  -52.8030    0.3520  -22.8180 C   0  0  0  0  0  0  0  0  0  0  0  0
  -52.0740   -0.3550  -23.7040 N   0  0  0  0  0  0  0  0  0  0  0  0
  -52.1840   -0.3870  -25.0470 C   0  0  0  0  0  0  0  0  0  0  0  0
  -52.1700    0.7900  -25.8000 C   0  0  0  0  0  0  0  0  0  0  0  0
  -52.2600    0.7300  -27.1910 C   0  0  0  0  0  0  0  0  0  0  0  0
  -52.2640    2.1910  -28.1230 Cl  0  0  0  0  0  0  0  0  0  0  0  0
  -52.3590   -0.4990  -27.8370 C   0  0  0  0  0  0  0  0  0  0  0  0
  -52.4480   -0.5200  -29.1770 F   0  0  0  0  0  0  0  0  0  0  0  0
  -52.3660   -1.6850  -27.0980 C   0  0  0  0  0  0  0  0  0  0  0  0
  -52.2700   -1.6270  -25.7050 C   0  0  0  0  0  0  0  0  0  0  0  0
  2  1  1  0
  6  1  1  0
  3  2  1  0
  4  3  1  0
  5  4  1  0
  6  5  1  0
  7  6  1  0
  8  7  1  0
  9  8  1  0
 10  9  1  0
 11 10  1  0
 12 11  2  0
 16 11  1  0
 13 12  1  0
 14 12  1  0
 18 13  2  0
 15 14  1  0
 17 16  2  0
 18 17  1  0
 22 17  1  0
 19 18  1  0
 20 19  1  0
 21 20  2  0
 22 21  1  0
 23 22  2  0
 24 23  1  0
 25 24  2  0
 31 24  1  0
 26 25  1  0
 27 26  1  0
 28 26  2  0
 29 28  1  0
 30 28  1  0
 31 30  2  0
A    1
CAO
A    2
CAL
A    3
OAU
A    4
CAM
A    5
CAP
A    6
NBE
A    7
CAN
A    8
CAJ
A    9
CAK
A   10
OAV
A   11
CBA
A   12
CAZ
A   13
CAH
A   14
OAT
A   15
CAA
A   16
CAI
A   17
C5
A   18
C4
A   19
N3
A   20
C2
A   21
N1
A   22
C6
A   23
NAS
A   24
CAY
A   25
CAG
A   26
CAX
A   27
CL
A   28
CAW
A   29
FAB
A   30
CAD
A   31
CAE
M  END
>  <Id>  (3) 
2ITY_IRE_A_2020

>  <ChainId>  (3) 
A

>  <AsymId>  (3) 
B

>  <SeqNum>  (3) 
2020

>  <Name>  (3) 
Gefitinib

>  <SystematicName>  (3) 
N-(3-chloro-4-fluoro-phenyl)-7-methoxy-6-(3-morpholin-4-ylpropoxy)-1H-quinazolin-4-imine

>  <Synonyms>  (3) 


>  <Type>  (3) 
NON-POLYMER

>  <Formula>  (3) 
C22 H24 Cl F N4 O3

>  <ObservedFormula>  (3) 
C22 F Cl N4 O3

>  <MolecularWeight>  (3) 
446.902

>  <ModifiedDate>  (3) 
2014-10-07

>  <Parent>  (3) 


>  <OneLetterCode>  (3) 


>  <SubcomponentList>  (3) 


>  <AmbiguousFlag>  (3) 
N

>  <InsertionCode>  (3) 


>  <InstanceId>  (3) 
2ITY_IRE_A_2020

>  <ChemCompId>  (3) 
IRE

>  <PdbId>  (3) 
2ITY

>  <ResidueNumber>  (3) 
2020

>  <InChI>  (3) 
InChI=1S/C22H24ClFN4O3/c1-29-20-13-19-16(12-21(20)31-8-2-5-28-6-9-30-10-7-28)22(26-14-25-19)27-15-3-4-18(24)17(23)11-15/h3-4,11-14H,2,5-10H2,1H3,(H,25,26,27)

>  <InChIKey>  (3) 
XGALLCVXEZPNRQ-UHFFFAOYSA-N

>  <SMILES>  (3) 
COc1cc2c(cc1OCCCN3CCOCC3)/C(=N/c4ccc(c(c4)Cl)F)/N=CN2

>  <MissingHeavyAtoms>  (3) 
0

>  <Model>  (3) 
1

>  <AltIds>  (3) 


>  <pKI>  (3) 
9.4

>  <ChemblID>  (3) 
CHEMBL939

>  <standardized_canonical_smiles>  (3) 
COc1cc2ncnc(Nc3ccc(F)c(Cl)c3)c2cc1OCCCN1CCOCC1

$$$$
4I22_IRE_A_9001
     RDKit          3D

 31 34  0  0  0  0  0  0  0  0999 V2000
   14.9140  -20.5570    9.2090 C   0  0  0  0  0  0  0  0  0  0  0  0
   15.6980  -21.8390    9.5040 C   0  0  0  0  0  0  0  0  0  0  0  0
   17.0040  -21.5310   10.0240 O   0  0  0  0  0  0  0  0  0  0  0  0
   16.9590  -20.7910   11.2550 C   0  0  0  0  0  0  0  0  0  0  0  0
   16.2600  -19.4500   11.0360 C   0  0  0  0  0  0  0  0  0  0  0  0
   14.8640  -19.7180   10.4890 N   0  0  0  0  0  0  0  0  0  0  0  0
   14.0840  -18.4530   10.2470 C   0  0  0  0  0  0  0  0  0  0  0  0
   12.8560  -18.5790   11.1200 C   0  0  0  0  0  0  0  0  0  0  0  0
   11.8800  -17.4270   11.0590 C   0  0  0  0  0  0  0  0  0  0  0  0
   11.2960  -17.3300    9.7500 O   0  0  0  0  0  0  0  0  0  0  0  0
   10.3290  -16.3490    9.5610 C   0  0  0  0  0  0  0  0  0  0  0  0
    9.7500  -16.2600    8.2480 C   0  0  0  0  0  0  0  0  0  0  0  0
    8.7370  -15.2780    7.9990 C   0  0  0  0  0  0  0  0  0  0  0  0
   10.2370  -17.1660    7.3220 O   0  0  0  0  0  0  0  0  0  0  0  0
    9.7210  -17.1700    5.9910 C   0  0  0  0  0  0  0  0  0  0  0  0
    9.8780  -15.4610   10.5740 C   0  0  0  0  0  0  0  0  0  0  0  0
    8.8720  -14.4940   10.3180 C   0  0  0  0  0  0  0  0  0  0  0  0
    8.2930  -14.4030    9.0020 C   0  0  0  0  0  0  0  0  0  0  0  0
    7.3290  -13.5060    8.6960 N   0  0  0  0  0  0  0  0  0  0  0  0
    6.9220  -12.6860    9.6830 C   0  0  0  0  0  0  0  0  0  0  0  0
    7.3860  -12.6750   10.9510 N   0  0  0  0  0  0  0  0  0  0  0  0
    8.3690  -13.5820   11.2800 C   0  0  0  0  0  0  0  0  0  0  0  0
    8.8790  -13.6020   12.6130 N   0  0  0  0  0  0  0  0  0  0  0  0
    8.1970  -13.1210   13.7500 C   0  0  0  0  0  0  0  0  0  0  0  0
    6.7720  -13.2550   13.8770 C   0  0  0  0  0  0  0  0  0  0  0  0
    6.0990  -12.7630   15.0080 C   0  0  0  0  0  0  0  0  0  0  0  0
    4.3950  -12.9460   15.0980 Cl  0  0  0  0  0  0  0  0  0  0  0  0
    6.8350  -12.1280   16.0380 C   0  0  0  0  0  0  0  0  0  0  0  0
    6.2170  -11.6510   17.1200 F   0  0  0  0  0  0  0  0  0  0  0  0
    8.2420  -11.9850   15.9410 C   0  0  0  0  0  0  0  0  0  0  0  0
    8.9210  -12.4810   14.7970 C   0  0  0  0  0  0  0  0  0  0  0  0
  2  1  1  0
  6  1  1  0
  3  2  1  0
  4  3  1  0
  5  4  1  0
  6  5  1  0
  7  6  1  0
  8  7  1  0
  9  8  1  0
 10  9  1  0
 11 10  1  0
 12 11  2  0
 16 11  1  0
 13 12  1  0
 14 12  1  0
 18 13  2  0
 15 14  1  0
 17 16  2  0
 18 17  1  0
 22 17  1  0
 19 18  1  0
 20 19  1  0
 21 20  2  0
 22 21  1  0
 23 22  2  0
 24 23  1  0
 25 24  2  0
 31 24  1  0
 26 25  1  0
 27 26  1  0
 28 26  2  0
 29 28  1  0
 30 28  1  0
 31 30  2  0
A    1
CAO
A    2
CAL
A    3
OAU
A    4
CAM
A    5
CAP
A    6
NBE
A    7
CAN
A    8
CAJ
A    9
CAK
A   10
OAV
A   11
CBA
A   12
CAZ
A   13
CAH
A   14
OAT
A   15
CAA
A   16
CAI
A   17
C5
A   18
C4
A   19
N3
A   20
C2
A   21
N1
A   22
C6
A   23
NAS
A   24
CAY
A   25
CAG
A   26
CAX
A   27
CL
A   28
CAW
A   29
FAB
A   30
CAD
A   31
CAE
M  END
>  <Id>  (4) 
4I22_IRE_A_9001

>  <ChainId>  (4) 
A

>  <AsymId>  (4) 
B

>  <SeqNum>  (4) 
9001

>  <Name>  (4) 
Gefitinib

>  <SystematicName>  (4) 
N-(3-chloro-4-fluoro-phenyl)-7-methoxy-6-(3-morpholin-4-ylpropoxy)-1H-quinazolin-4-imine

>  <Synonyms>  (4) 


>  <Type>  (4) 
NON-POLYMER

>  <Formula>  (4) 
C22 H24 Cl F N4 O3

>  <ObservedFormula>  (4) 
C22 F Cl N4 O3

>  <MolecularWeight>  (4) 
446.902

>  <ModifiedDate>  (4) 
2014-10-07

>  <Parent>  (4) 


>  <OneLetterCode>  (4) 


>  <SubcomponentList>  (4) 


>  <AmbiguousFlag>  (4) 
N

>  <InsertionCode>  (4) 


>  <InstanceId>  (4) 
4I22_IRE_A_9001

>  <ChemCompId>  (4) 
IRE

>  <PdbId>  (4) 
4I22

>  <ResidueNumber>  (4) 
9001

>  <InChI>  (4) 
InChI=1S/C22H24ClFN4O3/c1-29-20-13-19-16(12-21(20)31-8-2-5-28-6-9-30-10-7-28)22(26-14-25-19)27-15-3-4-18(24)17(23)11-15/h3-4,11-14H,2,5-10H2,1H3,(H,25,26,27)

>  <InChIKey>  (4) 
XGALLCVXEZPNRQ-UHFFFAOYSA-N

>  <SMILES>  (4) 
COc1cc2c(cc1OCCCN3CCOCC3)/C(=N/c4ccc(c(c4)Cl)F)/N=CN2

>  <MissingHeavyAtoms>  (4) 
0

>  <Model>  (4) 
1

>  <AltIds>  (4) 


>  <pKI>  (4) 
9.4

>  <ChemblID>  (4) 
CHEMBL939

>  <standardized_canonical_smiles>  (4) 
COc1cc2ncnc(Nc3ccc(F)c(Cl)c3)c2cc1OCCCN1CCOCC1

$$$$
4WKQ_IRE_A_1101
     RDKit          3D

 31 34  0  0  0  0  0  0  0  0999 V2000
    6.4230  190.3080   17.4020 C   0  0  0  0  0  0  0  0  0  0  0  0
    7.1360  189.3060   16.4730 C   0  0  0  0  0  0  0  0  0  0  0  0
    6.2180  188.8730   15.4010 O   0  0  0  0  0  0  0  0  0  0  0  0
    4.8720  188.4990   15.8600 C   0  0  0  0  0  0  0  0  0  0  0  0
    4.2000  189.7900   16.2650 C   0  0  0  0  0  0  0  0  0  0  0  0
    5.1860  190.7890   16.7580 N   0  0  0  0  0  0  0  0  0  0  0  0
    4.5160  191.3130   17.9730 C   0  0  0  0  0  0  0  0  0  0  0  0
    3.3620  192.1740   17.4760 C   0  0  0  0  0  0  0  0  0  0  0  0
    2.6930  192.7680   18.7120 C   0  0  0  0  0  0  0  0  0  0  0  0
    1.5110  193.3120   18.0930 O   0  0  0  0  0  0  0  0  0  0  0  0
    0.8360  194.3500   18.6400 C   0  0  0  0  0  0  0  0  0  0  0  0
    0.0240  195.0600   17.7430 C   0  0  0  0  0  0  0  0  0  0  0  0
   -0.7220  196.1480   18.2050 C   0  0  0  0  0  0  0  0  0  0  0  0
    0.0430  194.6190   16.4380 O   0  0  0  0  0  0  0  0  0  0  0  0
   -0.9750  195.1570   15.5770 C   0  0  0  0  0  0  0  0  0  0  0  0
    0.9010  194.6820   20.0080 C   0  0  0  0  0  0  0  0  0  0  0  0
    0.1410  195.7640   20.4760 C   0  0  0  0  0  0  0  0  0  0  0  0
   -0.6660  196.4850   19.5630 C   0  0  0  0  0  0  0  0  0  0  0  0
   -1.4210  197.5180   19.9720 N   0  0  0  0  0  0  0  0  0  0  0  0
   -1.3620  197.8990   21.3200 C   0  0  0  0  0  0  0  0  0  0  0  0
   -0.5710  197.1930   22.2210 N   0  0  0  0  0  0  0  0  0  0  0  0
    0.1510  196.1380   21.8470 C   0  0  0  0  0  0  0  0  0  0  0  0
    0.9250  195.4410   22.7410 N   0  0  0  0  0  0  0  0  0  0  0  0
    0.7480  195.6220   24.0720 C   0  0  0  0  0  0  0  0  0  0  0  0
   -0.5290  195.5750   24.6740 C   0  0  0  0  0  0  0  0  0  0  0  0
   -0.6650  195.7800   26.0490 C   0  0  0  0  0  0  0  0  0  0  0  0
   -2.2640  195.7510   26.8020 Cl  0  0  0  0  0  0  0  0  0  0  0  0
    0.4740  196.0300   26.8170 C   0  0  0  0  0  0  0  0  0  0  0  0
    0.3510  196.2040   28.1400 F   0  0  0  0  0  0  0  0  0  0  0  0
    1.7590  196.0520   26.2290 C   0  0  0  0  0  0  0  0  0  0  0  0
    1.8870  195.8460   24.8490 C   0  0  0  0  0  0  0  0  0  0  0  0
  2  1  1  0
  6  1  1  0
  3  2  1  0
  4  3  1  0
  5  4  1  0
  6  5  1  0
  7  6  1  0
  8  7  1  0
  9  8  1  0
 10  9  1  0
 11 10  1  0
 12 11  2  0
 16 11  1  0
 13 12  1  0
 14 12  1  0
 18 13  2  0
 15 14  1  0
 17 16  2  0
 18 17  1  0
 22 17  1  0
 19 18  1  0
 20 19  1  0
 21 20  2  0
 22 21  1  0
 23 22  2  0
 24 23  1  0
 25 24  2  0
 31 24  1  0
 26 25  1  0
 27 26  1  0
 28 26  2  0
 29 28  1  0
 30 28  1  0
 31 30  2  0
A    1
CAO
A    2
CAL
A    3
OAU
A    4
CAM
A    5
CAP
A    6
NBE
A    7
CAN
A    8
CAJ
A    9
CAK
A   10
OAV
A   11
CBA
A   12
CAZ
A   13
CAH
A   14
OAT
A   15
CAA
A   16
CAI
A   17
C5
A   18
C4
A   19
N3
A   20
C2
A   21
N1
A   22
C6
A   23
NAS
A   24
CAY
A   25
CAG
A   26
CAX
A   27
CL
A   28
CAW
A   29
FAB
A   30
CAD
A   31
CAE
M  END
>  <Id>  (5) 
4WKQ_IRE_A_1101

>  <ChainId>  (5) 
A

>  <AsymId>  (5) 
B

>  <SeqNum>  (5) 
1101

>  <Name>  (5) 
Gefitinib

>  <SystematicName>  (5) 
N-(3-chloro-4-fluoro-phenyl)-7-methoxy-6-(3-morpholin-4-ylpropoxy)-1H-quinazolin-4-imine

>  <Synonyms>  (5) 


>  <Type>  (5) 
NON-POLYMER

>  <Formula>  (5) 
C22 H24 Cl F N4 O3

>  <ObservedFormula>  (5) 
C22 F Cl N4 O3

>  <MolecularWeight>  (5) 
446.902

>  <ModifiedDate>  (5) 
2014-10-07

>  <Parent>  (5) 


>  <OneLetterCode>  (5) 


>  <SubcomponentList>  (5) 


>  <AmbiguousFlag>  (5) 
N

>  <InsertionCode>  (5) 


>  <InstanceId>  (5) 
4WKQ_IRE_A_1101

>  <ChemCompId>  (5) 
IRE

>  <PdbId>  (5) 
4WKQ

>  <ResidueNumber>  (5) 
1101

>  <InChI>  (5) 
InChI=1S/C22H24ClFN4O3/c1-29-20-13-19-16(12-21(20)31-8-2-5-28-6-9-30-10-7-28)22(26-14-25-19)27-15-3-4-18(24)17(23)11-15/h3-4,11-14H,2,5-10H2,1H3,(H,25,26,27)

>  <InChIKey>  (5) 
XGALLCVXEZPNRQ-UHFFFAOYSA-N

>  <SMILES>  (5) 
COc1cc2c(cc1OCCCN3CCOCC3)/C(=N/c4ccc(c(c4)Cl)F)/N=CN2

>  <MissingHeavyAtoms>  (5) 
0

>  <Model>  (5) 
1

>  <AltIds>  (5) 


>  <pKI>  (5) 
9.4

>  <ChemblID>  (5) 
CHEMBL939

>  <standardized_canonical_smiles>  (5) 
COc1cc2ncnc(Nc3ccc(F)c(Cl)c3)c2cc1OCCCN1CCOCC1

$$$$
3UG2_IRE_A_1
     RDKit          3D

 31 34  0  0  0  0  0  0  0  0999 V2000
    3.4040   46.1170   14.5070 C   0  0  0  0  0  0  0  0  0  0  0  0
    4.3860   44.9380   14.3750 C   0  0  0  0  0  0  0  0  0  0  0  0
    3.6900   43.6880   14.5540 O   0  0  0  0  0  0  0  0  0  0  0  0
    3.0800   43.4440   15.8490 C   0  0  0  0  0  0  0  0  0  0  0  0
    2.7940   44.7300   16.6440 C   0  0  0  0  0  0  0  0  0  0  0  0
    2.5950   45.8870   15.7230 N   0  0  0  0  0  0  0  0  0  0  0  0
    1.5560   46.8550   16.0410 C   0  0  0  0  0  0  0  0  0  0  0  0
    1.9860   47.4510   17.3890 C   0  0  0  0  0  0  0  0  0  0  0  0
    0.7930   47.7880   18.2910 C   0  0  0  0  0  0  0  0  0  0  0  0
   -0.0010   48.8270   17.6860 O   0  0  0  0  0  0  0  0  0  0  0  0
   -0.5460   49.8840   18.3700 C   0  0  0  0  0  0  0  0  0  0  0  0
   -1.1750   50.8290   17.5810 C   0  0  0  0  0  0  0  0  0  0  0  0
   -1.7490   51.9430   18.1780 C   0  0  0  0  0  0  0  0  0  0  0  0
   -1.2170   50.6790   16.2200 O   0  0  0  0  0  0  0  0  0  0  0  0
   -2.3380   51.2600   15.5080 C   0  0  0  0  0  0  0  0  0  0  0  0
   -0.5160   50.0310   19.7780 C   0  0  0  0  0  0  0  0  0  0  0  0
   -1.1300   51.1410   20.3560 C   0  0  0  0  0  0  0  0  0  0  0  0
   -1.7470   52.0880   19.5480 C   0  0  0  0  0  0  0  0  0  0  0  0
   -2.3440   53.1660   20.0860 N   0  0  0  0  0  0  0  0  0  0  0  0
   -2.3130   53.3880   21.3930 C   0  0  0  0  0  0  0  0  0  0  0  0
   -1.7230   52.5050   22.1960 N   0  0  0  0  0  0  0  0  0  0  0  0
   -1.1370   51.3830   21.7250 C   0  0  0  0  0  0  0  0  0  0  0  0
   -0.5500   50.5160   22.5680 N   0  0  0  0  0  0  0  0  0  0  0  0
   -0.7890   50.3540   23.9050 C   0  0  0  0  0  0  0  0  0  0  0  0
   -2.0680   50.5030   24.4450 C   0  0  0  0  0  0  0  0  0  0  0  0
   -2.2860   50.3360   25.8070 C   0  0  0  0  0  0  0  0  0  0  0  0
   -3.8770   50.5280   26.6050 Cl  0  0  0  0  0  0  0  0  0  0  0  0
   -1.2480   49.9960   26.6110 C   0  0  0  0  0  0  0  0  0  0  0  0
   -1.5490   49.8410   27.9240 F   0  0  0  0  0  0  0  0  0  0  0  0
    0.0430   49.8020   26.0870 C   0  0  0  0  0  0  0  0  0  0  0  0
    0.2670   49.9660   24.7340 C   0  0  0  0  0  0  0  0  0  0  0  0
  2  1  1  0
  6  1  1  0
  3  2  1  0
  4  3  1  0
  5  4  1  0
  6  5  1  0
  7  6  1  0
  8  7  1  0
  9  8  1  0
 10  9  1  0
 11 10  1  0
 12 11  2  0
 16 11  1  0
 13 12  1  0
 14 12  1  0
 18 13  2  0
 15 14  1  0
 17 16  2  0
 18 17  1  0
 22 17  1  0
 19 18  1  0
 20 19  1  0
 21 20  2  0
 22 21  1  0
 23 22  2  0
 24 23  1  0
 25 24  2  0
 31 24  1  0
 26 25  1  0
 27 26  1  0
 28 26  2  0
 29 28  1  0
 30 28  1  0
 31 30  2  0
A    1
CAO
A    2
CAL
A    3
OAU
A    4
CAM
A    5
CAP
A    6
NBE
A    7
CAN
A    8
CAJ
A    9
CAK
A   10
OAV
A   11
CBA
A   12
CAZ
A   13
CAH
A   14
OAT
A   15
CAA
A   16
CAI
A   17
C5
A   18
C4
A   19
N3
A   20
C2
A   21
N1
A   22
C6
A   23
NAS
A   24
CAY
A   25
CAG
A   26
CAX
A   27
CL
A   28
CAW
A   29
FAB
A   30
CAD
A   31
CAE
M  END
>  <Id>  (6) 
3UG2_IRE_A_1

>  <ChainId>  (6) 
A

>  <AsymId>  (6) 
B

>  <SeqNum>  (6) 
1

>  <Name>  (6) 
Gefitinib

>  <SystematicName>  (6) 
N-(3-chloro-4-fluoro-phenyl)-7-methoxy-6-(3-morpholin-4-ylpropoxy)-1H-quinazolin-4-imine

>  <Synonyms>  (6) 


>  <Type>  (6) 
NON-POLYMER

>  <Formula>  (6) 
C22 H24 Cl F N4 O3

>  <ObservedFormula>  (6) 
C22 F Cl N4 O3

>  <MolecularWeight>  (6) 
446.902

>  <ModifiedDate>  (6) 
2014-10-07

>  <Parent>  (6) 


>  <OneLetterCode>  (6) 


>  <SubcomponentList>  (6) 


>  <AmbiguousFlag>  (6) 
N

>  <InsertionCode>  (6) 


>  <InstanceId>  (6) 
3UG2_IRE_A_1

>  <ChemCompId>  (6) 
IRE

>  <PdbId>  (6) 
3UG2

>  <ResidueNumber>  (6) 
1

>  <InChI>  (6) 
InChI=1S/C22H24ClFN4O3/c1-29-20-13-19-16(12-21(20)31-8-2-5-28-6-9-30-10-7-28)22(26-14-25-19)27-15-3-4-18(24)17(23)11-15/h3-4,11-14H,2,5-10H2,1H3,(H,25,26,27)

>  <InChIKey>  (6) 
XGALLCVXEZPNRQ-UHFFFAOYSA-N

>  <SMILES>  (6) 
COc1cc2c(cc1OCCCN3CCOCC3)/C(=N/c4ccc(c(c4)Cl)F)/N=CN2

>  <MissingHeavyAtoms>  (6) 
0

>  <Model>  (6) 
1

>  <AltIds>  (6) 


>  <pKI>  (6) 
9.4

>  <ChemblID>  (6) 
CHEMBL939

>  <standardized_canonical_smiles>  (6) 
COc1cc2ncnc(Nc3ccc(F)c(Cl)c3)c2cc1OCCCN1CCOCC1

$$$$
1M17_AQ4_A_999
     RDKit          3D

 29 31  0  0  0  0  0  0  0  0999 V2000
   29.5520   -1.9890   53.4960 C   0  0  0  0  0  0  0  0  0  0  0  0
   28.8410   -1.0220   53.4320 C   0  0  0  0  0  0  0  0  0  0  0  0
   27.9890    0.0940   53.3660 C   0  0  0  0  0  0  0  0  0  0  0  0
   26.6060   -0.1190   53.3230 C   0  0  0  0  0  0  0  0  0  0  0  0
   25.7250    0.9720   53.2580 C   0  0  0  0  0  0  0  0  0  0  0  0
   24.2890    0.7120   53.2150 N   0  0  0  0  0  0  0  0  0  0  0  0
   23.4100   -0.2170   53.9080 C   0  0  0  0  0  0  0  0  0  0  0  0
   22.0370   -0.3090   53.5720 C   0  0  0  0  0  0  0  0  0  0  0  0
   21.5010    0.4760   52.5460 C   0  0  0  0  0  0  0  0  0  0  0  0
   20.1430    0.3760   52.2180 C   0  0  0  0  0  0  0  0  0  0  0  0
   19.5890    1.2200   51.1200 O   0  0  0  0  0  0  0  0  0  0  0  0
   20.5500    1.3620   50.0410 C   0  0  0  0  0  0  0  0  0  0  0  0
   20.2350    2.6450   49.2620 C   0  0  0  0  0  0  0  0  0  0  0  0
   18.9900    2.4850   48.5430 O   0  0  0  0  0  0  0  0  0  0  0  0
   17.7120    2.6180   49.3990 C   0  0  0  0  0  0  0  0  0  0  0  0
   19.3010   -0.5350   52.9230 C   0  0  0  0  0  0  0  0  0  0  0  0
   17.8280   -0.6790   52.5970 O   0  0  0  0  0  0  0  0  0  0  0  0
   17.2270    0.6010   52.2200 C   0  0  0  0  0  0  0  0  0  0  0  0
   15.7030    0.4940   52.0660 C   0  0  0  0  0  0  0  0  0  0  0  0
   15.1080    0.1670   53.3350 O   0  0  0  0  0  0  0  0  0  0  0  0
   13.8430   -0.6950   53.2210 C   0  0  0  0  0  0  0  0  0  0  0  0
   19.8450   -1.3180   53.9420 C   0  0  0  0  0  0  0  0  0  0  0  0
   21.1990   -1.2220   54.2640 C   0  0  0  0  0  0  0  0  0  0  0  0
   21.7470   -2.0390   55.3190 N   0  0  0  0  0  0  0  0  0  0  0  0
   23.1170   -1.9340   55.6420 C   0  0  0  0  0  0  0  0  0  0  0  0
   23.9430   -1.0230   54.9400 N   0  0  0  0  0  0  0  0  0  0  0  0
   26.2340    2.2920   53.2360 C   0  0  0  0  0  0  0  0  0  0  0  0
   27.6250    2.5090   53.2790 C   0  0  0  0  0  0  0  0  0  0  0  0
   28.5080    1.4100   53.3440 C   0  0  0  0  0  0  0  0  0  0  0  0
  2  1  3  0
  3  2  1  0
  4  3  2  0
 29  3  1  0
  5  4  1  0
  6  5  1  0
 27  5  2  0
  7  6  1  0
  8  7  1  0
 26  7  2  0
  9  8  2  0
 23  8  1  0
 10  9  1  0
 11 10  1  0
 16 10  2  0
 12 11  1  0
 13 12  1  0
 14 13  1  0
 15 14  1  0
 17 16  1  0
 22 16  1  0
 18 17  1  0
 19 18  1  0
 20 19  1  0
 21 20  1  0
 23 22  2  0
 24 23  1  0
 25 24  2  0
 26 25  1  0
 28 27  1  0
 29 28  2  0
A    1
C1
A    2
C2
A    3
C3
A    4
C4
A    5
C5
A    6
N1
A    7
C6
A    8
C7
A    9
C8
A   10
C9
A   11
O1
A   12
C10
A   13
C11
A   14
O2
A   15
C12
A   16
C13
A   17
O3
A   18
C14
A   19
C15
A   20
O4
A   21
C16
A   22
C17
A   23
C18
A   24
N2
A   25
C19
A   26
N3
A   27
C20
A   28
C21
A   29
C22
M  END
>  <Id>  (7) 
1M17_AQ4_A_999

>  <ChainId>  (7) 
A

>  <AsymId>  (7) 
B

>  <SeqNum>  (7) 
999

>  <Name>  (7) 
[6,7-BIS(2-METHOXY-ETHOXY)QUINAZOLINE-4-YL]-(3-ETHYNYLPHENYL)AMINE

>  <SystematicName>  (7) 
N-(3-ethynylphenyl)-6,7-bis(2-methoxyethoxy)quinazolin-4-amine

>  <Synonyms>  (7) 
ERLOTINIB

>  <Type>  (7) 
NON-POLYMER

>  <Formula>  (7) 
C22 H23 N3 O4

>  <ObservedFormula>  (7) 
C22 N3 O4

>  <MolecularWeight>  (7) 
393.436

>  <ModifiedDate>  (7) 
2011-12-06

>  <Parent>  (7) 


>  <OneLetterCode>  (7) 


>  <SubcomponentList>  (7) 


>  <AmbiguousFlag>  (7) 
N

>  <InsertionCode>  (7) 


>  <InstanceId>  (7) 
1M17_AQ4_A_999

>  <ChemCompId>  (7) 
AQ4

>  <PdbId>  (7) 
1M17

>  <ResidueNumber>  (7) 
999

>  <InChI>  (7) 
InChI=1S/C22H23N3O4/c1-4-16-6-5-7-17(12-16)25-22-18-13-20(28-10-8-26-2)21(29-11-9-27-3)14-19(18)23-15-24-22/h1,5-7,12-15H,8-11H2,2-3H3,(H,23,24,25)

>  <InChIKey>  (7) 
AAKJLRGGTJKAMG-UHFFFAOYSA-N

>  <SMILES>  (7) 
COCCOc1cc2c(cc1OCCOC)ncnc2Nc3cccc(c3)C#C

>  <MissingHeavyAtoms>  (7) 
0

>  <Model>  (7) 
1

>  <AltIds>  (7) 


>  <pKI>  (7) 
10.0

>  <ChemblID>  (7) 
CHEMBL553

>  <standardized_canonical_smiles>  (7) 
C#Cc1cccc(Nc2ncnc3cc(OCCOC)c(OCCOC)cc23)c1

$$$$
4HJO_AQ4_A_1001
     RDKit          3D

 29 31  0  0  0  0  0  0  0  0999 V2000
   28.8170   13.9250   -4.6970 C   0  0  0  0  0  0  0  0  0  0  0  0
   28.0300   13.9580   -3.7760 C   0  0  0  0  0  0  0  0  0  0  0  0
   27.0440   14.0330   -2.6190 C   0  0  0  0  0  0  0  0  0  0  0  0
   26.5490   12.8650   -2.0880 C   0  0  0  0  0  0  0  0  0  0  0  0
   25.6430   12.8980   -1.0140 C   0  0  0  0  0  0  0  0  0  0  0  0
   25.1050   11.6290   -0.4490 N   0  0  0  0  0  0  0  0  0  0  0  0
   25.9670   10.4240   -0.2840 C   0  0  0  0  0  0  0  0  0  0  0  0
   25.4040    9.1370    0.0500 C   0  0  0  0  0  0  0  0  0  0  0  0
   24.0330    8.9340    0.2320 C   0  0  0  0  0  0  0  0  0  0  0  0
   23.5640    7.6590    0.5520 C   0  0  0  0  0  0  0  0  0  0  0  0
   22.2160    7.4350    0.7360 O   0  0  0  0  0  0  0  0  0  0  0  0
   21.2710    8.4350    0.5760 C   0  0  0  0  0  0  0  0  0  0  0  0
   20.2290    8.3600    1.6960 C   0  0  0  0  0  0  0  0  0  0  0  0
   19.9970    7.0090    2.0750 O   0  0  0  0  0  0  0  0  0  0  0  0
   20.0450    6.6450    3.4240 C   0  0  0  0  0  0  0  0  0  0  0  0
   24.4380    6.5920    0.6870 C   0  0  0  0  0  0  0  0  0  0  0  0
   23.9000    5.3280    1.0210 O   0  0  0  0  0  0  0  0  0  0  0  0
   24.5160    4.1220    0.7310 C   0  0  0  0  0  0  0  0  0  0  0  0
   23.6020    2.9880    1.2080 C   0  0  0  0  0  0  0  0  0  0  0  0
   23.2320    3.2050    2.5410 O   0  0  0  0  0  0  0  0  0  0  0  0
   21.8620    3.2770    2.8900 C   0  0  0  0  0  0  0  0  0  0  0  0
   25.8250    6.7670    0.5150 C   0  0  0  0  0  0  0  0  0  0  0  0
   26.3140    8.0350    0.1960 C   0  0  0  0  0  0  0  0  0  0  0  0
   27.6640    8.2470    0.0120 N   0  0  0  0  0  0  0  0  0  0  0  0
   28.1360    9.4610   -0.2900 C   0  0  0  0  0  0  0  0  0  0  0  0
   27.3380   10.5100   -0.4400 N   0  0  0  0  0  0  0  0  0  0  0  0
   25.2320   14.1450   -0.4830 C   0  0  0  0  0  0  0  0  0  0  0  0
   25.7320   15.3140   -1.0180 C   0  0  0  0  0  0  0  0  0  0  0  0
   26.6320   15.2870   -2.0800 C   0  0  0  0  0  0  0  0  0  0  0  0
  2  1  3  0
  3  2  1  0
  4  3  2  0
 29  3  1  0
  5  4  1  0
  6  5  1  0
 27  5  2  0
  7  6  1  0
  8  7  1  0
 26  7  2  0
  9  8  2  0
 23  8  1  0
 10  9  1  0
 11 10  1  0
 16 10  2  0
 12 11  1  0
 13 12  1  0
 14 13  1  0
 15 14  1  0
 17 16  1  0
 22 16  1  0
 18 17  1  0
 19 18  1  0
 20 19  1  0
 21 20  1  0
 23 22  2  0
 24 23  1  0
 25 24  2  0
 26 25  1  0
 28 27  1  0
 29 28  2  0
A    1
C1
A    2
C2
A    3
C3
A    4
C4
A    5
C5
A    6
N1
A    7
C6
A    8
C7
A    9
C8
A   10
C9
A   11
O1
A   12
C10
A   13
C11
A   14
O2
A   15
C12
A   16
C13
A   17
O3
A   18
C14
A   19
C15
A   20
O4
A   21
C16
A   22
C17
A   23
C18
A   24
N2
A   25
C19
A   26
N3
A   27
C20
A   28
C21
A   29
C22
M  END
>  <Id>  (8) 
4HJO_AQ4_A_1001

>  <ChainId>  (8) 
A

>  <AsymId>  (8) 
B

>  <SeqNum>  (8) 
1001

>  <Name>  (8) 
[6,7-BIS(2-METHOXY-ETHOXY)QUINAZOLINE-4-YL]-(3-ETHYNYLPHENYL)AMINE

>  <SystematicName>  (8) 
N-(3-ethynylphenyl)-6,7-bis(2-methoxyethoxy)quinazolin-4-amine

>  <Synonyms>  (8) 
ERLOTINIB

>  <Type>  (8) 
NON-POLYMER

>  <Formula>  (8) 
C22 H23 N3 O4

>  <ObservedFormula>  (8) 
C22 N3 O4

>  <MolecularWeight>  (8) 
393.436

>  <ModifiedDate>  (8) 
2011-12-06

>  <Parent>  (8) 


>  <OneLetterCode>  (8) 


>  <SubcomponentList>  (8) 


>  <AmbiguousFlag>  (8) 
N

>  <InsertionCode>  (8) 


>  <InstanceId>  (8) 
4HJO_AQ4_A_1001

>  <ChemCompId>  (8) 
AQ4

>  <PdbId>  (8) 
4HJO

>  <ResidueNumber>  (8) 
1001

>  <InChI>  (8) 
InChI=1S/C22H23N3O4/c1-4-16-6-5-7-17(12-16)25-22-18-13-20(28-10-8-26-2)21(29-11-9-27-3)14-19(18)23-15-24-22/h1,5-7,12-15H,8-11H2,2-3H3,(H,23,24,25)

>  <InChIKey>  (8) 
AAKJLRGGTJKAMG-UHFFFAOYSA-N

>  <SMILES>  (8) 
COCCOc1cc2c(cc1OCCOC)ncnc2Nc3cccc(c3)C#C

>  <MissingHeavyAtoms>  (8) 
0

>  <Model>  (8) 
1

>  <AltIds>  (8) 


>  <pKI>  (8) 
10.0

>  <ChemblID>  (8) 
CHEMBL553

>  <standardized_canonical_smiles>  (8) 
C#Cc1cccc(Nc2ncnc3cc(OCCOC)c(OCCOC)cc23)c1

$$$$
5XGM_85X_A_1101
     RDKit          3D

 29 34  0  0  0  0  0  0  0  0999 V2000
  -53.9550    2.0710  -21.3840 O   0  0  0  0  0  0  0  0  0  0  0  0
  -53.3560    1.6680  -22.3740 C   0  0  0  0  0  0  0  0  0  0  0  0
  -53.7720    1.8660  -23.6090 N   0  0  0  0  0  0  0  0  0  0  0  0
  -52.7680    1.2420  -24.4690 C   0  0  0  0  0  0  0  0  0  0  0  0
  -51.8270    0.7340  -23.5880 C   0  0  0  0  0  0  0  0  0  0  0  0
  -52.2060    1.0000  -22.3370 C   0  0  0  0  0  0  0  0  0  0  0  0
  -51.4440    0.6000  -21.3200 C   0  0  0  0  0  0  0  0  0  0  0  0
  -51.5650    0.7200  -20.0010 C   0  0  0  0  0  0  0  0  0  0  0  0
  -52.5040    1.2920  -19.2590 C   0  0  0  0  0  0  0  0  0  0  0  0
  -52.4060    1.2920  -17.8790 C   0  0  0  0  0  0  0  0  0  0  0  0
  -51.3150    0.6830  -17.2930 C   0  0  0  0  0  0  0  0  0  0  0  0
  -50.3680    0.0980  -18.1140 C   0  0  0  0  0  0  0  0  0  0  0  0
  -50.5130    0.1310  -19.4320 C   0  0  0  0  0  0  0  0  0  0  0  0
  -49.7460   -0.3470  -20.3990 N   0  0  0  0  0  0  0  0  0  0  0  0
  -48.4760   -1.0750  -20.2380 C   0  0  0  0  0  0  0  0  0  0  0  0
  -50.3170   -0.0600  -21.5580 C   0  0  0  0  0  0  0  0  0  0  0  0
  -49.9460   -0.3230  -22.7980 C   0  0  0  0  0  0  0  0  0  0  0  0
  -50.6990    0.0710  -23.8140 C   0  0  0  0  0  0  0  0  0  0  0  0
  -50.1000   -0.3170  -24.9370 C   0  0  0  0  0  0  0  0  0  0  0  0
  -50.4450   -0.1660  -26.2140 C   0  0  0  0  0  0  0  0  0  0  0  0
  -49.6420   -0.6690  -27.2270 C   0  0  0  0  0  0  0  0  0  0  0  0
  -48.4770   -1.3280  -26.8780 C   0  0  0  0  0  0  0  0  0  0  0  0
  -48.1710   -1.4560  -25.5340 C   0  0  0  0  0  0  0  0  0  0  0  0
  -48.9770   -0.9530  -24.6060 C   0  0  0  0  0  0  0  0  0  0  0  0
  -48.8870   -0.9540  -23.2840 N   0  0  0  0  0  0  0  0  0  0  0  0
  -47.7930   -1.5610  -22.5000 C   0  0  0  0  0  0  0  0  0  0  0  0
  -47.5010   -2.9820  -22.9980 C   0  0  0  0  0  0  0  0  0  0  0  0
  -47.5210   -3.9280  -21.8720 C   0  0  0  0  0  0  0  0  0  0  0  0
  -47.5350   -4.6530  -21.0050 N   0  0  0  0  0  0  0  0  0  0  0  0
  2  1  2  0
  3  2  1  0
  6  2  1  0
  4  3  1  0
  5  4  1  0
  6  5  2  0
 18  5  1  0
  7  6  1  0
  8  7  1  0
 16  7  2  0
  9  8  2  0
 13  8  1  0
 10  9  1  0
 11 10  2  0
 12 11  1  0
 13 12  2  0
 14 13  1  0
 15 14  1  0
 16 14  1  0
 17 16  1  0
 18 17  2  0
 25 17  1  0
 19 18  1  0
 20 19  2  0
 24 19  1  0
 21 20  1  0
 22 21  2  0
 23 22  1  0
 24 23  2  0
 25 24  1  0
 26 25  1  0
 27 26  1  0
 28 27  1  0
 29 28  3  0
A    1
OAC
A    2
CAQ
A    3
NAP
A    4
CAN
A    5
CAR
A    6
CAS
A    7
CAY
A    8
CAT
A    9
CAI
A   10
CAE
A   11
CAG
A   12
CAK
A   13
CAV
A   14
NBB
A   15
CAA
A   16
CAZ
A   17
CBA
A   18
CAX
A   19
CAU
A   20
CAJ
A   21
CAF
A   22
CAH
A   23
CAL
A   24
CAW
A   25
NBC
A   26
CAO
A   27
CAM
A   28
CAD
A   29
NAB
M  END
>  <Id>  (9) 
5XGM_85X_A_1101

>  <ChainId>  (9) 
A

>  <AsymId>  (9) 
B

>  <SeqNum>  (9) 
1101

>  <Name>  (9) 
12-(2-Cyanoethyl)-6,7,12,13-tetrahydro-13-methyl-5-oxo-5H-indolo[2,3-a]pyrrolo[3,4-c]carbazole

>  <SystematicName>  (9) 
null

>  <Synonyms>  (9) 
Go 6976

>  <Type>  (9) 
NON-POLYMER

>  <Formula>  (9) 
C24 H18 N4 O

>  <ObservedFormula>  (9) 
C24 N4 O

>  <MolecularWeight>  (9) 
378.426

>  <ModifiedDate>  (9) 
2017-10-06

>  <Parent>  (9) 


>  <OneLetterCode>  (9) 


>  <SubcomponentList>  (9) 


>  <AmbiguousFlag>  (9) 
N

>  <InsertionCode>  (9) 


>  <InstanceId>  (9) 
5XGM_85X_A_1101

>  <ChemCompId>  (9) 
85X

>  <PdbId>  (9) 
5XGM

>  <ResidueNumber>  (9) 
1101

>  <InChI>  (9) 
InChI=1S/C24H18N4O/c1-27-17-9-4-2-7-14(17)20-21-16(13-26-24(21)29)19-15-8-3-5-10-18(15)28(12-6-11-25)23(19)22(20)27/h2-5,7-10H,6,12-13H2,1H3,(H,26,29)

>  <InChIKey>  (9) 
VWVYILCFSYNJHF-UHFFFAOYSA-N

>  <SMILES>  (9) 
Cn1c2ccccc2c3c1c4c(c5ccccc5n4CCC#N)c6c3C(=O)NC6

>  <MissingHeavyAtoms>  (9) 
0

>  <Model>  (9) 
1

>  <AltIds>  (9) 


>  <pKI>  (9) 
7.7

>  <ChemblID>  (9) 
CHEMBL302449

>  <standardized_canonical_smiles>  (9) 
Cn1c2ccccc2c2c3c(c4c5ccccc5n(CCC#N)c4c21)CNC3=O

$$$$
5XGN_85X_A_1101
     RDKit          3D

 29 34  0  0  0  0  0  0  0  0999 V2000
    7.7140   27.0030  195.9250 O   0  0  0  0  0  0  0  0  0  0  0  0
    7.9810   25.9600  195.3350 C   0  0  0  0  0  0  0  0  0  0  0  0
    7.0880   25.1000  194.8790 N   0  0  0  0  0  0  0  0  0  0  0  0
    7.8590   24.0160  194.2670 C   0  0  0  0  0  0  0  0  0  0  0  0
    9.1830   24.3910  194.4600 C   0  0  0  0  0  0  0  0  0  0  0  0
    9.2160   25.5550  195.0990 C   0  0  0  0  0  0  0  0  0  0  0  0
   10.3760   26.1150  195.3940 C   0  0  0  0  0  0  0  0  0  0  0  0
   10.6690   27.2460  196.0120 C   0  0  0  0  0  0  0  0  0  0  0  0
    9.8760   28.1740  196.5280 C   0  0  0  0  0  0  0  0  0  0  0  0
   10.4270   29.2890  197.1330 C   0  0  0  0  0  0  0  0  0  0  0  0
   11.8060   29.4010  197.1800 C   0  0  0  0  0  0  0  0  0  0  0  0
   12.5790   28.3970  196.6230 C   0  0  0  0  0  0  0  0  0  0  0  0
   11.9930   27.3540  196.0580 C   0  0  0  0  0  0  0  0  0  0  0  0
   12.5060   26.2880  195.4690 N   0  0  0  0  0  0  0  0  0  0  0  0
   13.9370   26.0190  195.3050 C   0  0  0  0  0  0  0  0  0  0  0  0
   11.5090   25.5230  195.0590 C   0  0  0  0  0  0  0  0  0  0  0  0
   11.4810   24.3670  194.4230 C   0  0  0  0  0  0  0  0  0  0  0  0
   10.3230   23.8000  194.1250 C   0  0  0  0  0  0  0  0  0  0  0  0
   10.5780   22.6640  193.4970 C   0  0  0  0  0  0  0  0  0  0  0  0
    9.7670   21.7430  193.0000 C   0  0  0  0  0  0  0  0  0  0  0  0
   10.2850   20.6210  192.3770 C   0  0  0  0  0  0  0  0  0  0  0  0
   11.6580   20.4850  192.2890 C   0  0  0  0  0  0  0  0  0  0  0  0
   12.4490   21.4800  192.8280 C   0  0  0  0  0  0  0  0  0  0  0  0
   11.8930   22.5300  193.4100 C   0  0  0  0  0  0  0  0  0  0  0  0
   12.4450   23.5810  193.9830 N   0  0  0  0  0  0  0  0  0  0  0  0
   13.8970   23.7730  194.0710 C   0  0  0  0  0  0  0  0  0  0  0  0
   14.6260   22.4720  193.7180 C   0  0  0  0  0  0  0  0  0  0  0  0
   15.4030   22.6220  192.4680 C   0  0  0  0  0  0  0  0  0  0  0  0
   16.0010   22.7230  191.5120 N   0  0  0  0  0  0  0  0  0  0  0  0
  2  1  2  0
  3  2  1  0
  6  2  1  0
  4  3  1  0
  5  4  1  0
  6  5  2  0
 18  5  1  0
  7  6  1  0
  8  7  1  0
 16  7  2  0
  9  8  2  0
 13  8  1  0
 10  9  1  0
 11 10  2  0
 12 11  1  0
 13 12  2  0
 14 13  1  0
 15 14  1  0
 16 14  1  0
 17 16  1  0
 18 17  2  0
 25 17  1  0
 19 18  1  0
 20 19  2  0
 24 19  1  0
 21 20  1  0
 22 21  2  0
 23 22  1  0
 24 23  2  0
 25 24  1  0
 26 25  1  0
 27 26  1  0
 28 27  1  0
 29 28  3  0
A    1
OAC
A    2
CAQ
A    3
NAP
A    4
CAN
A    5
CAR
A    6
CAS
A    7
CAY
A    8
CAT
A    9
CAI
A   10
CAE
A   11
CAG
A   12
CAK
A   13
CAV
A   14
NBB
A   15
CAA
A   16
CAZ
A   17
CBA
A   18
CAX
A   19
CAU
A   20
CAJ
A   21
CAF
A   22
CAH
A   23
CAL
A   24
CAW
A   25
NBC
A   26
CAO
A   27
CAM
A   28
CAD
A   29
NAB
M  END
>  <Id>  (10) 
5XGN_85X_A_1101

>  <ChainId>  (10) 
A

>  <AsymId>  (10) 
C

>  <SeqNum>  (10) 
1101

>  <Name>  (10) 
12-(2-Cyanoethyl)-6,7,12,13-tetrahydro-13-methyl-5-oxo-5H-indolo[2,3-a]pyrrolo[3,4-c]carbazole

>  <SystematicName>  (10) 
null

>  <Synonyms>  (10) 
Go 6976

>  <Type>  (10) 
NON-POLYMER

>  <Formula>  (10) 
C24 H18 N4 O

>  <ObservedFormula>  (10) 
C24 N4 O

>  <MolecularWeight>  (10) 
378.426

>  <ModifiedDate>  (10) 
2017-10-06

>  <Parent>  (10) 


>  <OneLetterCode>  (10) 


>  <SubcomponentList>  (10) 


>  <AmbiguousFlag>  (10) 
N

>  <InsertionCode>  (10) 


>  <InstanceId>  (10) 
5XGN_85X_A_1101

>  <ChemCompId>  (10) 
85X

>  <PdbId>  (10) 
5XGN

>  <ResidueNumber>  (10) 
1101

>  <InChI>  (10) 
InChI=1S/C24H18N4O/c1-27-17-9-4-2-7-14(17)20-21-16(13-26-24(21)29)19-15-8-3-5-10-18(15)28(12-6-11-25)23(19)22(20)27/h2-5,7-10H,6,12-13H2,1H3,(H,26,29)

>  <InChIKey>  (10) 
VWVYILCFSYNJHF-UHFFFAOYSA-N

>  <SMILES>  (10) 
Cn1c2ccccc2c3c1c4c(c5ccccc5n4CCC#N)c6c3C(=O)NC6

>  <MissingHeavyAtoms>  (10) 
0

>  <Model>  (10) 
1

>  <AltIds>  (10) 


>  <pKI>  (10) 
7.7

>  <ChemblID>  (10) 
CHEMBL302449

>  <standardized_canonical_smiles>  (10) 
Cn1c2ccccc2c2c3c(c4c5ccccc5n(CCC#N)c4c21)CNC3=O

$$$$
3LZB_ITI_D_1
     RDKit          3D

 43 49  0  0  0  0  0  0  0  0999 V2000
   49.3220   55.5540   56.1990 C   0  0  0  0  0  0  0  0  0  0  0  0
   49.4720   56.1890   54.9860 C   0  0  0  0  0  0  0  0  0  0  0  0
   45.1770   48.7470   55.4480 C   0  0  0  0  0  0  0  0  0  0  0  0
   44.9680   50.9220   56.3300 C   0  0  0  0  0  0  0  0  0  0  0  0
   54.9740   60.9120   48.4810 C   0  0  0  0  0  0  0  0  0  0  0  0
   48.8390   54.2580   56.2560 C   0  0  0  0  0  0  0  0  0  0  0  0
   52.2120   55.8470   53.1710 C   0  0  0  0  0  0  0  0  0  0  0  0
   53.5720   55.8740   53.3300 C   0  0  0  0  0  0  0  0  0  0  0  0
   45.7860   49.9010   55.9020 C   0  0  0  0  0  0  0  0  0  0  0  0
   48.4980   53.5760   55.1070 C   0  0  0  0  0  0  0  0  0  0  0  0
   51.7100   56.6990   52.2180 C   0  0  0  0  0  0  0  0  0  0  0  0
   49.1850   56.1570   52.5530 C   0  0  0  0  0  0  0  0  0  0  0  0
   53.8030   57.4780   51.7420 C   0  0  0  0  0  0  0  0  0  0  0  0
   50.2630   57.8940   49.6910 C   0  0  0  0  0  0  0  0  0  0  0  0
   47.6900   51.5310   56.2180 C   0  0  0  0  0  0  0  0  0  0  0  0
   42.9930   49.6800   55.7960 C   0  0  0  0  0  0  0  0  0  0  0  0
   43.8050   48.6390   55.3960 C   0  0  0  0  0  0  0  0  0  0  0  0
   43.5940   50.8220   56.2730 C   0  0  0  0  0  0  0  0  0  0  0  0
   52.6890   60.5510   48.9760 C   0  0  0  0  0  0  0  0  0  0  0  0
   55.3260   59.9360   49.3900 C   0  0  0  0  0  0  0  0  0  0  0  0
   53.0440   59.5910   49.8890 C   0  0  0  0  0  0  0  0  0  0  0  0
   48.6230   54.2140   53.8960 C   0  0  0  0  0  0  0  0  0  0  0  0
   49.1220   55.5020   53.8360 C   0  0  0  0  0  0  0  0  0  0  0  0
   53.6510   61.2300   48.2690 C   0  0  0  0  0  0  0  0  0  0  0  0
   54.3600   59.2610   50.1040 C   0  0  0  0  0  0  0  0  0  0  0  0
   50.2970   56.6990   51.9250 C   0  0  0  0  0  0  0  0  0  0  0  0
   48.4620   56.9460   50.7520 C   0  0  0  0  0  0  0  0  0  0  0  0
   49.2750   58.1220   48.8190 C   0  0  0  0  0  0  0  0  0  0  0  0
   54.3370   62.8860   46.6250 C   0  0  0  0  0  0  0  0  0  0  0  0
   51.8690   62.5210   47.1420 C   0  0  0  0  0  0  0  0  0  0  0  0
   53.8260   63.1860   45.2430 C   0  0  0  0  0  0  0  0  0  0  0  0
   51.6260   62.7270   45.6730 C   0  0  0  0  0  0  0  0  0  0  0  0
   47.2830   50.0820   55.9510 C   0  0  0  0  0  0  0  0  0  0  0  0
   54.3800   56.6690   52.6320 N   0  0  0  0  0  0  0  0  0  0  0  0
   52.4850   57.5100   51.4930 N   0  0  0  0  0  0  0  0  0  0  0  0
   48.0330   56.3260   51.8240 N   0  0  0  0  0  0  0  0  0  0  0  0
   49.7860   57.2110   50.7680 N   0  0  0  0  0  0  0  0  0  0  0  0
   53.2770   62.2160   47.3410 N   0  0  0  0  0  0  0  0  0  0  0  0
   54.7110   58.2930   51.0490 N   0  0  0  0  0  0  0  0  0  0  0  0
   48.0200   52.2530   55.0950 N   0  0  0  0  0  0  0  0  0  0  0  0
   47.7140   52.0240   57.3320 O   0  0  0  0  0  0  0  0  0  0  0  0
   52.7730   62.2770   44.9670 O   0  0  0  0  0  0  0  0  0  0  0  0
   47.7170   57.5300   49.3010 S   0  0  0  0  0  0  0  0  0  0  0  0
  2  1  2  0
  6  1  1  0
 23  2  1  0
  9  3  2  0
 17  3  1  0
  9  4  1  0
 18  4  2  0
 20  5  2  0
 24  5  1  0
 10  6  2  0
  8  7  2  0
 11  7  1  0
 34  8  1  0
 33  9  1  0
 22 10  1  0
 40 10  1  0
 26 11  1  0
 35 11  2  0
 23 12  1  0
 26 12  2  0
 36 12  1  0
 34 13  2  0
 35 13  1  0
 39 13  1  0
 28 14  2  0
 37 14  1  0
 33 15  1  0
 40 15  1  0
 41 15  2  0
 17 16  2  0
 18 16  1  0
 21 19  1  0
 24 19  2  0
 25 20  1  0
 25 21  2  0
 23 22  2  0
 38 24  1  0
 39 25  1  0
 37 26  1  0
 36 27  2  0
 37 27  1  0
 43 27  1  0
 43 28  1  0
 31 29  1  0
 38 29  1  0
 32 30  1  0
 38 30  1  0
 42 31  1  0
 42 32  1  0
A    1
C4
A    2
C5
A    3
C6
A    4
C7
A    5
C8
A    6
C10
A    7
C13
A    8
C15
A    9
C17
A   10
C20
A   11
C21
A   12
C22
A   13
C24
A   14
C26
A   15
C28
A   16
C1
A   17
C2
A   18
C3
A   19
C9
A   20
C11
A   21
C12
A   22
C14
A   23
C16
A   24
C18
A   25
C19
A   26
C23
A   27
C25
A   28
C27
A   29
C29
A   30
C30
A   31
C31
A   32
C32
A   33
C33
A   34
N34
A   35
N35
A   36
N36
A   37
N37
A   38
N38
A   39
N39
A   40
N40
A   41
O41
A   42
O42
A   43
S43
M  END
>  <Id>  (11) 
3LZB_ITI_D_1

>  <ChainId>  (11) 
D

>  <AsymId>  (11) 
L

>  <SeqNum>  (11) 
1

>  <Name>  (11) 
N-[3-(5-{2-[(4-morpholin-4-ylphenyl)amino]pyrimidin-4-yl}imidazo[2,1-b][1,3]thiazol-6-yl)phenyl]-2-phenylacetamide

>  <SystematicName>  (11) 
N-[3-[5-[2-[(4-morpholin-4-ylphenyl)amino]pyrimidin-4-yl]imidazo[2,1-b][1,3]thiazol-6-yl]phenyl]-2-phenyl-ethanamide

>  <Synonyms>  (11) 


>  <Type>  (11) 
NON-POLYMER

>  <Formula>  (11) 
C33 H29 N7 O2 S

>  <ObservedFormula>  (11) 
C33 S N7 O2

>  <MolecularWeight>  (11) 
587.694

>  <ModifiedDate>  (11) 
2011-06-04

>  <Parent>  (11) 


>  <OneLetterCode>  (11) 


>  <SubcomponentList>  (11) 


>  <AmbiguousFlag>  (11) 
N

>  <InsertionCode>  (11) 


>  <InstanceId>  (11) 
3LZB_ITI_D_1

>  <ChemCompId>  (11) 
ITI

>  <PdbId>  (11) 
3LZB

>  <ResidueNumber>  (11) 
1

>  <InChI>  (11) 
InChI=1S/C33H29N7O2S/c41-29(21-23-5-2-1-3-6-23)35-26-8-4-7-24(22-26)30-31(40-17-20-43-33(40)38-30)28-13-14-34-32(37-28)36-25-9-11-27(12-10-25)39-15-18-42-19-16-39/h1-14,17,20,22H,15-16,18-19,21H2,(H,35,41)(H,34,36,37)

>  <InChIKey>  (11) 
BFTPDUXUTFGDLP-UHFFFAOYSA-N

>  <SMILES>  (11) 
c1ccc(cc1)CC(=O)Nc2cccc(c2)c3c(n4ccsc4n3)c5ccnc(n5)Nc6ccc(cc6)N7CCOCC7

>  <MissingHeavyAtoms>  (11) 
0

>  <Model>  (11) 
1

>  <AltIds>  (11) 


>  <pKI>  (11) 
7.5

>  <ChemblID>  (11) 
CHEMBL1090356

>  <standardized_canonical_smiles>  (11) 
O=C(Cc1ccccc1)Nc1cccc(-c2nc3sccn3c2-c2ccnc(Nc3ccc(N4CCOCC4)cc3)n2)c1

$$$$
4RJ8_3QS_A_1102
     RDKit          3D

 29 33  0  0  0  0  0  0  0  0999 V2000
  -51.8500   -2.5060  -28.1050 C   0  0  0  0  0  0  0  0  0  0  0  0
  -53.0670   -1.6340  -27.7620 C   0  0  0  0  0  0  0  0  0  0  0  0
  -56.3870    0.4030  -26.4600 C   0  0  0  0  0  0  0  0  0  0  0  0
  -52.1570   -1.3780  -25.3740 C   0  0  0  0  0  0  0  0  0  0  0  0
  -50.8320   -2.0140  -25.8300 C   0  0  0  0  0  0  0  0  0  0  0  0
  -54.3220   -0.5820  -25.9920 C   0  0  0  0  0  0  0  0  0  0  0  0
  -56.2340    1.2340  -25.3540 C   0  0  0  0  0  0  0  0  0  0  0  0
  -55.0760    1.1070  -24.5710 C   0  0  0  0  0  0  0  0  0  0  0  0
  -50.6530   -1.9060  -27.3520 C   0  0  0  0  0  0  0  0  0  0  0  0
  -48.9370   -3.6880  -27.6630 C   0  0  0  0  0  0  0  0  0  0  0  0
  -49.3620   -2.3200  -27.8220 O   0  0  0  0  0  0  0  0  0  0  0  0
  -53.3310   -1.5260  -26.2920 N   0  0  0  0  0  0  0  0  0  0  0  0
  -55.4300   -0.4750  -26.7380 N   0  0  0  0  0  0  0  0  0  0  0  0
  -54.1640    0.2100  -24.9300 N   0  0  0  0  0  0  0  0  0  0  0  0
  -54.8730    1.9400  -23.4810 N   0  0  0  0  0  0  0  0  0  0  0  0
  -54.2190    1.6270  -22.2810 C   0  0  0  0  0  0  0  0  0  0  0  0
  -53.2060    0.6660  -22.1940 C   0  0  0  0  0  0  0  0  0  0  0  0
  -52.5990    0.4120  -20.9530 C   0  0  0  0  0  0  0  0  0  0  0  0
  -53.0180    1.1890  -19.8360 C   0  0  0  0  0  0  0  0  0  0  0  0
  -52.2240    0.7390  -18.6910 C   0  0  0  0  0  0  0  0  0  0  0  0
  -51.4320   -0.2390  -19.1430 C   0  0  0  0  0  0  0  0  0  0  0  0
  -51.6300   -0.4530  -20.4980 N   0  0  0  0  0  0  0  0  0  0  0  0
  -50.9100   -1.4390  -21.3380 C   0  0  0  0  0  0  0  0  0  0  0  0
  -49.9180   -0.7260  -22.2730 C   0  0  0  0  0  0  0  0  0  0  0  0
  -48.6880   -0.4610  -21.3770 C   0  0  0  0  0  0  0  0  0  0  0  0
  -48.5750   -1.7690  -20.5540 C   0  0  0  0  0  0  0  0  0  0  0  0
  -49.9960   -2.3850  -20.5340 C   0  0  0  0  0  0  0  0  0  0  0  0
  -54.0040    2.1600  -20.0210 C   0  0  0  0  0  0  0  0  0  0  0  0
  -54.5730    2.3320  -21.2050 N   0  0  0  0  0  0  0  0  0  0  0  0
  2  1  1  0
  9  1  1  0
 12  2  1  0
  7  3  2  0
 13  3  1  0
  5  4  1  0
 12  4  1  0
  9  5  1  0
 12  6  1  0
 13  6  2  0
 14  6  1  0
  8  7  1  0
 14  8  2  0
 15  8  1  0
 11  9  1  0
 11 10  1  0
 16 15  1  0
 17 16  2  0
 29 16  1  0
 18 17  1  0
 19 18  2  0
 22 18  1  0
 20 19  1  0
 28 19  1  0
 21 20  2  0
 22 21  1  0
 23 22  1  0
 24 23  1  0
 27 23  1  0
 25 24  1  0
 26 25  1  0
 27 26  1  0
 29 28  2  0
A    1
C4
A    2
C5
A    3
C11
A    4
C7
A    5
C8
A    6
C9
A    7
C12
A    8
C13
A    9
C3
A   10
C1
A   11
O2
A   12
N6
A   13
N10
A   14
N14
A   15
N15
A   16
C16
A   17
C17
A   18
C18
A   19
C19
A   20
C20
A   21
C21
A   22
N22
A   23
C23
A   24
C24
A   25
C25
A   26
C26
A   27
C27
A   28
C28
A   29
N29
M  END
>  <Id>  (12) 
4RJ8_3QS_A_1102

>  <ChainId>  (12) 
A

>  <AsymId>  (12) 
C

>  <SeqNum>  (12) 
1102

>  <Name>  (12) 
1-cyclopentyl-N-[2-(4-methoxypiperidin-1-yl)pyrimidin-4-yl]-1H-pyrrolo[3,2-c]pyridin-6-amine

>  <SystematicName>  (12) 
1-cyclopentyl-N-[2-(4-methoxypiperidin-1-yl)pyrimidin-4-yl]pyrrolo[3,2-c]pyridin-6-amine

>  <Synonyms>  (12) 


>  <Type>  (12) 
NON-POLYMER

>  <Formula>  (12) 
C22 H28 N6 O

>  <ObservedFormula>  (12) 
C22 N6 O

>  <MolecularWeight>  (12) 
392.497

>  <ModifiedDate>  (12) 
2014-11-21

>  <Parent>  (12) 


>  <OneLetterCode>  (12) 


>  <SubcomponentList>  (12) 


>  <AmbiguousFlag>  (12) 
N

>  <InsertionCode>  (12) 


>  <InstanceId>  (12) 
4RJ8_3QS_A_1102

>  <ChemCompId>  (12) 
3QS

>  <PdbId>  (12) 
4RJ8

>  <ResidueNumber>  (12) 
1102

>  <InChI>  (12) 
InChI=1S/C22H28N6O/c1-29-18-8-11-27(12-9-18)22-23-10-6-20(26-22)25-21-14-19-16(15-24-21)7-13-28(19)17-4-2-3-5-17/h6-7,10,13-15,17-18H,2-5,8-9,11-12H2,1H3,(H,23,24,25,26)

>  <InChIKey>  (12) 
BYMFSZLMPVZBJV-UHFFFAOYSA-N

>  <SMILES>  (12) 
COC1CCN(CC1)c2nccc(n2)Nc3cc4c(ccn4C5CCCC5)cn3

>  <MissingHeavyAtoms>  (12) 
0

>  <Model>  (12) 
1

>  <AltIds>  (12) 


>  <pKI>  (12) 
6.26

>  <ChemblID>  (12) 
CHEMBL3354189

>  <standardized_canonical_smiles>  (12) 
COC1CCN(c2nccc(Nc3cc4c(ccn4C4CCCC4)cn3)n2)CC1

$$$$
4RJ7_3R1_A_1102
     RDKit          3D

 30 32  0  0  0  0  0  0  0  0999 V2000
  -52.9730    1.2320  -18.8220 C   0  0  0  0  0  0  0  0  0  0  0  0
  -51.0120    0.0600  -18.3110 C   0  0  0  0  0  0  0  0  0  0  0  0
  -48.1750   -1.1940  -20.3390 C   0  0  0  0  0  0  0  0  0  0  0  0
  -49.6770   -1.0330  -20.1450 C   0  0  0  0  0  0  0  0  0  0  0  0
  -50.3770   -2.3400  -20.5560 C   0  0  0  0  0  0  0  0  0  0  0  0
  -53.0790    1.6320  -17.4720 C   0  0  0  0  0  0  0  0  0  0  0  0
  -52.1690    1.5310  -15.1100 C   0  0  0  0  0  0  0  0  0  0  0  0
  -52.1120    1.1640  -16.5740 C   0  0  0  0  0  0  0  0  0  0  0  0
  -51.9410    0.4530  -19.1760 N   0  0  0  0  0  0  0  0  0  0  0  0
  -51.1100    0.3990  -17.0250 N   0  0  0  0  0  0  0  0  0  0  0  0
  -49.9470   -0.7330  -18.7310 N   0  0  0  0  0  0  0  0  0  0  0  0
  -50.6680   -2.3330  -21.9650 O   0  0  0  0  0  0  0  0  0  0  0  0
  -53.9080    1.6820  -19.7620 N   0  0  0  0  0  0  0  0  0  0  0  0
  -53.9230    1.4410  -21.1450 C   0  0  0  0  0  0  0  0  0  0  0  0
  -53.1010    0.4720  -21.7200 C   0  0  0  0  0  0  0  0  0  0  0  0
  -53.1460    0.2320  -23.0950 C   0  0  0  0  0  0  0  0  0  0  0  0
  -54.0820    0.9750  -23.8610 C   0  0  0  0  0  0  0  0  0  0  0  0
  -54.9140    1.8910  -23.2320 C   0  0  0  0  0  0  0  0  0  0  0  0
  -54.7980    2.1070  -21.9170 N   0  0  0  0  0  0  0  0  0  0  0  0
  -52.2980   -0.7870  -23.5810 N   0  0  0  0  0  0  0  0  0  0  0  0
  -52.3820   -1.3840  -24.7920 C   0  0  0  0  0  0  0  0  0  0  0  0
  -53.1960   -1.0180  -25.6450 O   0  0  0  0  0  0  0  0  0  0  0  0
  -51.4840   -2.4990  -25.1800 C   0  0  0  0  0  0  0  0  0  0  0  0
  -50.3880   -2.2380  -26.0150 C   0  0  0  0  0  0  0  0  0  0  0  0
  -49.6270   -3.2850  -26.5160 C   0  0  0  0  0  0  0  0  0  0  0  0
  -49.9700   -4.6010  -26.2220 C   0  0  0  0  0  0  0  0  0  0  0  0
  -51.0730   -4.8790  -25.4250 C   0  0  0  0  0  0  0  0  0  0  0  0
  -51.8350   -3.8390  -24.9200 C   0  0  0  0  0  0  0  0  0  0  0  0
  -53.1870   -4.2200  -23.9140 Cl  0  0  0  0  0  0  0  0  0  0  0  0
  -49.9570   -0.5950  -26.3520 Cl  0  0  0  0  0  0  0  0  0  0  0  0
  6  1  2  0
  9  1  1  0
 13  1  1  0
  9  2  2  0
 10  2  1  0
 11  2  1  0
  4  3  1  0
  5  4  1  0
 11  4  1  0
 12  5  1  0
  8  6  1  0
  8  7  1  0
 10  8  2  0
 14 13  1  0
 15 14  2  0
 19 14  1  0
 16 15  1  0
 17 16  2  0
 20 16  1  0
 18 17  1  0
 19 18  2  0
 21 20  1  0
 22 21  2  0
 23 21  1  0
 24 23  2  0
 28 23  1  0
 25 24  1  0
 30 24  1  0
 26 25  2  0
 27 26  1  0
 28 27  2  0
 29 28  1  0
A    1
C4
A    2
C6
A    3
C11
A    4
C9
A    5
C12
A    6
C3
A    7
C1
A    8
C2
A    9
N5
A   10
N7
A   11
N8
A   12
O13
A   13
N14
A   14
C15
A   15
C16
A   16
C17
A   17
C18
A   18
C19
A   19
N20
A   20
N21
A   21
C22
A   22
O23
A   23
C24
A   24
C25
A   25
C26
A   26
C27
A   27
C28
A   28
C29
A   29
CL1
A   30
CL2
M  END
>  <Id>  (13) 
4RJ7_3R1_A_1102

>  <ChainId>  (13) 
A

>  <AsymId>  (13) 
C

>  <SeqNum>  (13) 
1102

>  <Name>  (13) 
2,6-dichloro-N-{2-[(2-{[(2S)-1-hydroxypropan-2-yl]amino}-6-methylpyrimidin-4-yl)amino]pyridin-4-yl}benzamide

>  <SystematicName>  (13) 
2,6-bis(chloranyl)-N-[2-[[6-methyl-2-[[(2S)-1-oxidanylpropan-2-yl]amino]pyrimidin-4-yl]amino]pyridin-4-yl]benzamide

>  <Synonyms>  (13) 


>  <Type>  (13) 
NON-POLYMER

>  <Formula>  (13) 
C20 H20 Cl2 N6 O2

>  <ObservedFormula>  (13) 
C20 Cl2 N6 O2

>  <MolecularWeight>  (13) 
447.318

>  <ModifiedDate>  (13) 
2014-11-21

>  <Parent>  (13) 


>  <OneLetterCode>  (13) 


>  <SubcomponentList>  (13) 


>  <AmbiguousFlag>  (13) 
N

>  <InsertionCode>  (13) 


>  <InstanceId>  (13) 
4RJ7_3R1_A_1102

>  <ChemCompId>  (13) 
3R1

>  <PdbId>  (13) 
4RJ7

>  <ResidueNumber>  (13) 
1102

>  <InChI>  (13) 
InChI=1S/C20H20Cl2N6O2/c1-11-8-17(28-20(24-11)25-12(2)10-29)27-16-9-13(6-7-23-16)26-19(30)18-14(21)4-3-5-15(18)22/h3-9,12,29H,10H2,1-2H3,(H3,23,24,25,26,27,28,30)/t12-/m0/s1

>  <InChIKey>  (13) 
SMUCRZPXLSRBNU-LBPRGKRZSA-N

>  <SMILES>  (13) 
Cc1cc(nc(n1)N[C@@H](C)CO)Nc2cc(ccn2)NC(=O)c3c(cccc3Cl)Cl

>  <MissingHeavyAtoms>  (13) 
0

>  <Model>  (13) 
1

>  <AltIds>  (13) 


>  <pKI>  (13) 
7.0

>  <ChemblID>  (13) 
CHEMBL3354183

>  <standardized_canonical_smiles>  (13) 
Cc1cc(Nc2cc(NC(=O)c3c(Cl)cccc3Cl)ccn2)nc(N[C@@H](C)CO)n1

$$$$
5CAL_4Z8_A_1101
     RDKit          3D

 28 30  0  0  0  0  0  0  0  0999 V2000
  -52.7840    1.5370  -19.3620 C   0  0  0  0  0  0  0  0  0  0  0  0
  -53.7480    2.4970  -19.6950 C   0  0  0  0  0  0  0  0  0  0  0  0
  -50.5890   -1.2760  -20.3250 C   0  0  0  0  0  0  0  0  0  0  0  0
  -53.8730    1.7240  -21.8930 C   0  0  0  0  0  0  0  0  0  0  0  0
  -52.8930    0.7500  -21.6510 C   0  0  0  0  0  0  0  0  0  0  0  0
  -52.3360    0.6320  -20.3640 C   0  0  0  0  0  0  0  0  0  0  0  0
  -51.4300   -2.3860  -20.9680 C   0  0  0  0  0  0  0  0  0  0  0  0
  -49.5080   -0.7450  -21.2710 C   0  0  0  0  0  0  0  0  0  0  0  0
  -52.1060    1.2470  -18.2230 N   0  0  0  0  0  0  0  0  0  0  0  0
  -50.3980   -0.3090  -17.3570 C   0  0  0  0  0  0  0  0  0  0  0  0
  -51.2960    0.2520  -18.4330 C   0  0  0  0  0  0  0  0  0  0  0  0
  -54.2560    2.5440  -20.9140 N   0  0  0  0  0  0  0  0  0  0  0  0
  -51.3910   -0.1800  -19.7360 N   0  0  0  0  0  0  0  0  0  0  0  0
  -54.5000    1.9380  -23.1310 N   0  0  0  0  0  0  0  0  0  0  0  0
  -54.5270    1.1190  -24.2560 C   0  0  0  0  0  0  0  0  0  0  0  0
  -55.6330    1.1620  -25.1240 C   0  0  0  0  0  0  0  0  0  0  0  0
  -55.6200    0.3330  -26.2400 C   0  0  0  0  0  0  0  0  0  0  0  0
  -54.5700   -0.4650  -26.4540 N   0  0  0  0  0  0  0  0  0  0  0  0
  -53.5430   -0.4940  -25.6070 C   0  0  0  0  0  0  0  0  0  0  0  0
  -53.5100    0.3020  -24.5500 N   0  0  0  0  0  0  0  0  0  0  0  0
  -52.4410   -1.2840  -25.8610 N   0  0  0  0  0  0  0  0  0  0  0  0
  -52.2180   -2.5520  -25.1530 C   0  0  0  0  0  0  0  0  0  0  0  0
  -50.9280   -3.2700  -25.6050 C   0  0  0  0  0  0  0  0  0  0  0  0
  -50.7370   -3.1550  -27.1290 C   0  0  0  0  0  0  0  0  0  0  0  0
  -49.7450   -2.6010  -24.9020 C   0  0  0  0  0  0  0  0  0  0  0  0
  -50.9650   -4.7320  -25.1810 C   0  0  0  0  0  0  0  0  0  0  0  0
  -51.4460   -5.0580  -24.1060 O   0  0  0  0  0  0  0  0  0  0  0  0
  -50.4470   -5.7080  -25.9660 N   0  0  0  0  0  0  0  0  0  0  0  0
  2  1  2  0
  6  1  1  0
  9  1  1  0
 12  2  1  0
  7  3  1  0
  8  3  1  0
 13  3  1  0
  5  4  1  0
 12  4  2  0
 14  4  1  0
  6  5  2  0
 13  6  1  0
 11  9  2  0
 11 10  1  0
 13 11  1  0
 15 14  1  0
 16 15  2  0
 20 15  1  0
 17 16  1  0
 18 17  2  0
 19 18  1  0
 20 19  2  0
 21 19  1  0
 22 21  1  0
 23 22  1  0
 24 23  1  0
 25 23  1  0
 26 23  1  0
 27 26  2  0
 28 26  1  0
A    1
C4
A    2
C5
A    3
C11
A    4
C7
A    5
C8
A    6
C9
A    7
C12
A    8
C13
A    9
N3
A   10
C1
A   11
C2
A   12
N6
A   13
N10
A   14
N14
A   15
C15
A   16
C16
A   17
C17
A   18
N18
A   19
C19
A   20
N20
A   21
N21
A   22
C22
A   23
C23
A   24
C24
A   25
C25
A   26
C26
A   27
O27
A   28
N28
M  END
>  <Id>  (14) 
5CAL_4Z8_A_1101

>  <ChainId>  (14) 
A

>  <AsymId>  (14) 
B

>  <SeqNum>  (14) 
1101

>  <Name>  (14) 
2,2-dimethyl-3-[(4-{[2-methyl-1-(propan-2-yl)-1H-imidazo[4,5-c]pyridin-6-yl]amino}pyrimidin-2-yl)amino]propanamide

>  <SystematicName>  (14) 
2,2-dimethyl-3-[[4-[(2-methyl-1-propan-2-yl-imidazo[4,5-c]pyridin-6-yl)amino]pyrimidin-2-yl]amino]propanamide

>  <Synonyms>  (14) 


>  <Type>  (14) 
NON-POLYMER

>  <Formula>  (14) 
C19 H26 N8 O

>  <ObservedFormula>  (14) 
C19 N8 O

>  <MolecularWeight>  (14) 
382.463

>  <ModifiedDate>  (14) 
2015-10-23

>  <Parent>  (14) 


>  <OneLetterCode>  (14) 


>  <SubcomponentList>  (14) 


>  <AmbiguousFlag>  (14) 
N

>  <InsertionCode>  (14) 


>  <InstanceId>  (14) 
5CAL_4Z8_A_1101

>  <ChemCompId>  (14) 
4Z8

>  <PdbId>  (14) 
5CAL

>  <ResidueNumber>  (14) 
1101

>  <InChI>  (14) 
InChI=1S/C19H26N8O/c1-11(2)27-12(3)24-13-9-22-16(8-14(13)27)25-15-6-7-21-18(26-15)23-10-19(4,5)17(20)28/h6-9,11H,10H2,1-5H3,(H2,20,28)(H2,21,22,23,25,26)

>  <InChIKey>  (14) 
MTUQMGZENJYREJ-UHFFFAOYSA-N

>  <SMILES>  (14) 
Cc1nc2cnc(cc2n1C(C)C)Nc3ccnc(n3)NCC(C)(C)C(=O)N

>  <MissingHeavyAtoms>  (14) 
0

>  <Model>  (14) 
1

>  <AltIds>  (14) 


>  <pKI>  (14) 
6.41

>  <ChemblID>  (14) 
CHEMBL3735689

>  <standardized_canonical_smiles>  (14) 
Cc1nc2cnc(Nc3ccnc(NCC(C)(C)C(N)=O)n3)cc2n1C(C)C

$$$$
5CAN_4ZB_A_1102
     RDKit          3D

 29 32  0  0  0  0  0  0  0  0999 V2000
  -53.0750    1.5580  -19.6130 C   0  0  0  0  0  0  0  0  0  0  0  0
  -54.0750    2.5200  -19.8400 C   0  0  0  0  0  0  0  0  0  0  0  0
  -51.0540   -1.0920  -21.1080 C   0  0  0  0  0  0  0  0  0  0  0  0
  -54.3070    1.8440  -22.0850 C   0  0  0  0  0  0  0  0  0  0  0  0
  -53.2790    0.9140  -21.9500 C   0  0  0  0  0  0  0  0  0  0  0  0
  -52.6700    0.7400  -20.7020 C   0  0  0  0  0  0  0  0  0  0  0  0
  -49.5520   -0.8910  -21.3220 C   0  0  0  0  0  0  0  0  0  0  0  0
  -51.4850   -2.5300  -20.8210 C   0  0  0  0  0  0  0  0  0  0  0  0
  -52.3240    1.1770  -18.5410 N   0  0  0  0  0  0  0  0  0  0  0  0
  -50.5770   -0.4100  -17.8750 C   0  0  0  0  0  0  0  0  0  0  0  0
  -51.5270    0.1970  -18.8760 C   0  0  0  0  0  0  0  0  0  0  0  0
  -54.6540    2.6060  -21.0330 N   0  0  0  0  0  0  0  0  0  0  0  0
  -51.6900   -0.1000  -20.2220 N   0  0  0  0  0  0  0  0  0  0  0  0
  -54.9700    2.0530  -23.3080 N   0  0  0  0  0  0  0  0  0  0  0  0
  -55.0130    1.1970  -24.4050 C   0  0  0  0  0  0  0  0  0  0  0  0
  -56.1600    1.1320  -25.2140 C   0  0  0  0  0  0  0  0  0  0  0  0
  -56.1390    0.2810  -26.3160 C   0  0  0  0  0  0  0  0  0  0  0  0
  -55.0380   -0.4320  -26.5810 N   0  0  0  0  0  0  0  0  0  0  0  0
  -53.9750   -0.3920  -25.7730 C   0  0  0  0  0  0  0  0  0  0  0  0
  -53.9650    0.4450  -24.7370 N   0  0  0  0  0  0  0  0  0  0  0  0
  -52.7850   -1.0430  -26.0900 N   0  0  0  0  0  0  0  0  0  0  0  0
  -51.8100   -1.2230  -24.9800 C   0  0  0  0  0  0  0  0  0  0  0  0
  -50.6580   -1.9690  -25.7030 C   0  0  0  0  0  0  0  0  0  0  0  0
  -51.4320   -2.9640  -26.6030 C   0  0  0  0  0  0  0  0  0  0  0  0
  -52.8090   -2.3030  -26.8630 C   0  0  0  0  0  0  0  0  0  0  0  0
  -50.7000   -3.0580  -27.9490 C   0  0  0  0  0  0  0  0  0  0  0  0
  -51.5790   -4.2940  -25.8580 C   0  0  0  0  0  0  0  0  0  0  0  0
  -52.3010   -4.3900  -24.8680 O   0  0  0  0  0  0  0  0  0  0  0  0
  -50.9010   -5.3990  -26.2470 N   0  0  0  0  0  0  0  0  0  0  0  0
  2  1  2  0
  6  1  1  0
  9  1  1  0
 12  2  1  0
  7  3  1  0
  8  3  1  0
 13  3  1  0
  5  4  1  0
 12  4  2  0
 14  4  1  0
  6  5  2  0
 13  6  1  0
 11  9  2  0
 11 10  1  0
 13 11  1  0
 15 14  1  0
 16 15  2  0
 20 15  1  0
 17 16  1  0
 18 17  2  0
 19 18  1  0
 20 19  2  0
 21 19  1  0
 22 21  1  0
 25 21  1  0
 23 22  1  0
 24 23  1  0
 25 24  1  0
 26 24  1  0
 27 24  1  0
 28 27  2  0
 29 27  1  0
A    1
C4
A    2
C5
A    3
C11
A    4
C7
A    5
C8
A    6
C9
A    7
C12
A    8
C13
A    9
N3
A   10
C1
A   11
C2
A   12
N6
A   13
N10
A   14
N14
A   15
C15
A   16
C16
A   17
C17
A   18
N18
A   19
C19
A   20
N20
A   21
N21
A   22
C22
A   23
C23
A   24
C24
A   25
C25
A   26
C26
A   27
C27
A   28
O28
A   29
N29
M  END
>  <Id>  (15) 
5CAN_4ZB_A_1102

>  <ChainId>  (15) 
A

>  <AsymId>  (15) 
C

>  <SeqNum>  (15) 
1102

>  <Name>  (15) 
(3R)-3-methyl-1-(4-{[2-methyl-1-(propan-2-yl)-1H-imidazo[4,5-c]pyridin-6-yl]amino}pyrimidin-2-yl)pyrrolidine-3-carboxamide

>  <SystematicName>  (15) 
(3R)-3-methyl-1-[4-[(2-methyl-1-propan-2-yl-imidazo[4,5-c]pyridin-6-yl)amino]pyrimidin-2-yl]pyrrolidine-3-carboxamide

>  <Synonyms>  (15) 


>  <Type>  (15) 
NON-POLYMER

>  <Formula>  (15) 
C20 H26 N8 O

>  <ObservedFormula>  (15) 
C20 N8 O

>  <MolecularWeight>  (15) 
394.473

>  <ModifiedDate>  (15) 
2015-10-30

>  <Parent>  (15) 


>  <OneLetterCode>  (15) 


>  <SubcomponentList>  (15) 


>  <AmbiguousFlag>  (15) 
N

>  <InsertionCode>  (15) 


>  <InstanceId>  (15) 
5CAN_4ZB_A_1102

>  <ChemCompId>  (15) 
4ZB

>  <PdbId>  (15) 
5CAN

>  <ResidueNumber>  (15) 
1102

>  <InChI>  (15) 
InChI=1S/C20H26N8O/c1-12(2)28-13(3)24-14-10-23-17(9-15(14)28)25-16-5-7-22-19(26-16)27-8-6-20(4,11-27)18(21)29/h5,7,9-10,12H,6,8,11H2,1-4H3,(H2,21,29)(H,22,23,25,26)/t20-/m1/s1

>  <InChIKey>  (15) 
WPZKCOGUAMITHT-HXUWFJFHSA-N

>  <SMILES>  (15) 
Cc1nc2cnc(cc2n1C(C)C)Nc3ccnc(n3)N4CC[C@@](C4)(C)C(=O)N

>  <MissingHeavyAtoms>  (15) 
0

>  <Model>  (15) 
1

>  <AltIds>  (15) 


>  <pKI>  (15) 
6.17

>  <ChemblID>  (15) 
CHEMBL3735638

>  <standardized_canonical_smiles>  (15) 
Cc1nc2cnc(Nc3ccnc(N4CCC(C)(C(N)=O)C4)n3)cc2n1C(C)C

$$$$
5CAO_4ZG_A_1101
     RDKit          3D

 29 31  0  0  0  0  0  0  0  0999 V2000
  -54.3970    1.6160  -21.0740 C   0  0  0  0  0  0  0  0  0  0  0  0
  -55.3900    2.5560  -21.3850 C   0  0  0  0  0  0  0  0  0  0  0  0
  -52.1870   -1.0430  -22.3030 C   0  0  0  0  0  0  0  0  0  0  0  0
  -55.4720    1.8510  -23.6080 C   0  0  0  0  0  0  0  0  0  0  0  0
  -54.4510    0.9160  -23.3860 C   0  0  0  0  0  0  0  0  0  0  0  0
  -53.9100    0.7760  -22.1020 C   0  0  0  0  0  0  0  0  0  0  0  0
  -50.7000   -0.7210  -22.4950 C   0  0  0  0  0  0  0  0  0  0  0  0
  -52.4620   -2.4900  -21.8840 C   0  0  0  0  0  0  0  0  0  0  0  0
  -53.7200    1.2850  -19.9450 N   0  0  0  0  0  0  0  0  0  0  0  0
  -51.9650   -0.2220  -19.1090 C   0  0  0  0  0  0  0  0  0  0  0  0
  -52.8670    0.3310  -20.1910 C   0  0  0  0  0  0  0  0  0  0  0  0
  -55.8920    2.6320  -22.6070 N   0  0  0  0  0  0  0  0  0  0  0  0
  -52.9440   -0.0310  -21.5270 N   0  0  0  0  0  0  0  0  0  0  0  0
  -56.0410    2.0660  -24.8730 N   0  0  0  0  0  0  0  0  0  0  0  0
  -56.0580    1.1740  -25.9340 C   0  0  0  0  0  0  0  0  0  0  0  0
  -57.1330    1.2110  -26.8370 C   0  0  0  0  0  0  0  0  0  0  0  0
  -57.1410    0.2910  -27.8790 C   0  0  0  0  0  0  0  0  0  0  0  0
  -56.1330   -0.5760  -28.0090 N   0  0  0  0  0  0  0  0  0  0  0  0
  -55.1260   -0.5980  -27.1410 C   0  0  0  0  0  0  0  0  0  0  0  0
  -55.0850    0.2720  -26.1250 N   0  0  0  0  0  0  0  0  0  0  0  0
  -54.1270   -1.5430  -27.3100 N   0  0  0  0  0  0  0  0  0  0  0  0
  -52.9540   -1.6160  -26.4250 C   0  0  0  0  0  0  0  0  0  0  0  0
  -52.2460   -2.9770  -26.4950 C   0  0  0  0  0  0  0  0  0  0  0  0
  -53.0810   -4.0420  -25.7600 C   0  0  0  0  0  0  0  0  0  0  0  0
  -50.9020   -2.8170  -25.7690 C   0  0  0  0  0  0  0  0  0  0  0  0
  -52.0020   -3.4120  -28.2510 S   0  0  0  0  0  0  0  0  0  0  0  0
  -53.2720   -3.7090  -28.8270 O   0  0  0  0  0  0  0  0  0  0  0  0
  -51.2010   -2.3880  -28.8490 O   0  0  0  0  0  0  0  0  0  0  0  0
  -51.0480   -4.9630  -28.2630 C   0  0  0  0  0  0  0  0  0  0  0  0
  2  1  2  0
  6  1  1  0
  9  1  1  0
 12  2  1  0
  7  3  1  0
  8  3  1  0
 13  3  1  0
  5  4  1  0
 12  4  2  0
 14  4  1  0
  6  5  2  0
 13  6  1  0
 11  9  2  0
 11 10  1  0
 13 11  1  0
 15 14  1  0
 16 15  2  0
 20 15  1  0
 17 16  1  0
 18 17  2  0
 19 18  1  0
 20 19  2  0
 21 19  1  0
 22 21  1  0
 23 22  1  0
 24 23  1  0
 25 23  1  0
 26 23  1  0
 27 26  2  0
 28 26  2  0
 29 26  1  0
A    1
C4
A    2
C5
A    3
C11
A    4
C7
A    5
C8
A    6
C9
A    7
C12
A    8
C13
A    9
N3
A   10
C1
A   11
C2
A   12
N6
A   13
N10
A   14
N14
A   15
C15
A   16
C16
A   17
C17
A   18
N18
A   19
C19
A   20
N20
A   21
N21
A   22
C22
A   23
C23
A   24
C24
A   25
C25
A   26
S26
A   27
O27
A   28
O28
A   29
C29
M  END
>  <Id>  (16) 
5CAO_4ZG_A_1101

>  <ChainId>  (16) 
A

>  <AsymId>  (16) 
B

>  <SeqNum>  (16) 
1101

>  <Name>  (16) 
N~2~-[2-methyl-2-(methylsulfonyl)propyl]-N~4~-[2-methyl-1-(propan-2-yl)-1H-imidazo[4,5-c]pyridin-6-yl]pyrimidine-2,4-diamine

>  <SystematicName>  (16) 
N2-(2-methyl-2-methylsulfonyl-propyl)-N4-(2-methyl-1-propan-2-yl-imidazo[4,5-c]pyridin-6-yl)pyrimidine-2,4-diamine

>  <Synonyms>  (16) 


>  <Type>  (16) 
NON-POLYMER

>  <Formula>  (16) 
C19 H27 N7 O2 S

>  <ObservedFormula>  (16) 
C19 S N7 O2

>  <MolecularWeight>  (16) 
417.528

>  <ModifiedDate>  (16) 
2015-10-23

>  <Parent>  (16) 


>  <OneLetterCode>  (16) 


>  <SubcomponentList>  (16) 


>  <AmbiguousFlag>  (16) 
N

>  <InsertionCode>  (16) 


>  <InstanceId>  (16) 
5CAO_4ZG_A_1101

>  <ChemCompId>  (16) 
4ZG

>  <PdbId>  (16) 
5CAO

>  <ResidueNumber>  (16) 
1101

>  <InChI>  (16) 
InChI=1S/C19H27N7O2S/c1-12(2)26-13(3)23-14-10-21-17(9-15(14)26)24-16-7-8-20-18(25-16)22-11-19(4,5)29(6,27)28/h7-10,12H,11H2,1-6H3,(H2,20,21,22,24,25)

>  <InChIKey>  (16) 
FYQBREXHKBTBID-UHFFFAOYSA-N

>  <SMILES>  (16) 
Cc1nc2cnc(cc2n1C(C)C)Nc3ccnc(n3)NCC(C)(C)S(=O)(=O)C

>  <MissingHeavyAtoms>  (16) 
0

>  <Model>  (16) 
1

>  <AltIds>  (16) 


>  <pKI>  (16) 
5.74

>  <ChemblID>  (16) 
CHEMBL3735782

>  <standardized_canonical_smiles>  (16) 
Cc1nc2cnc(Nc3ccnc(NCC(C)(C)S(C)(=O)=O)n3)cc2n1C(C)C

$$$$
5CAP_4ZH_A_1103
     RDKit          3D

 29 31  0  0  0  0  0  0  0  0999 V2000
  -50.8160   -0.9720  -22.9060 C   0  0  0  0  0  0  0  0  0  0  0  0
  -53.7850   -2.5970  -27.1580 C   0  0  0  0  0  0  0  0  0  0  0  0
  -55.2370    2.3870  -21.2280 C   0  0  0  0  0  0  0  0  0  0  0  0
  -55.4830    1.7980  -23.4800 C   0  0  0  0  0  0  0  0  0  0  0  0
  -55.7980    2.5480  -22.4190 N   0  0  0  0  0  0  0  0  0  0  0  0
  -57.2130    1.1600  -26.7440 C   0  0  0  0  0  0  0  0  0  0  0  0
  -56.1430    2.0630  -24.7050 N   0  0  0  0  0  0  0  0  0  0  0  0
  -52.7500   -0.0060  -20.2890 C   0  0  0  0  0  0  0  0  0  0  0  0
  -52.4070   -4.3340  -28.0240 C   0  0  0  0  0  0  0  0  0  0  0  0
  -52.6970   -2.7290  -22.3600 C   0  0  0  0  0  0  0  0  0  0  0  0
  -50.5550   -2.2500  -29.4160 O   0  0  0  0  0  0  0  0  0  0  0  0
  -55.0790   -0.5330  -26.9170 C   0  0  0  0  0  0  0  0  0  0  0  0
  -52.2580   -1.2760  -22.4910 C   0  0  0  0  0  0  0  0  0  0  0  0
  -54.2690    1.3930  -21.0150 C   0  0  0  0  0  0  0  0  0  0  0  0
  -56.1600    1.2080  -25.7970 C   0  0  0  0  0  0  0  0  0  0  0  0
  -54.4940    0.8090  -23.3500 C   0  0  0  0  0  0  0  0  0  0  0  0
  -52.3440   -2.8720  -27.5790 C   0  0  0  0  0  0  0  0  0  0  0  0
  -51.7840   -1.7550  -28.9280 S   0  0  0  0  0  0  0  0  0  0  0  0
  -53.9140   -1.2090  -26.9400 O   0  0  0  0  0  0  0  0  0  0  0  0
  -53.8870    0.5840  -22.1080 C   0  0  0  0  0  0  0  0  0  0  0  0
  -52.9320   -0.2920  -21.6260 N   0  0  0  0  0  0  0  0  0  0  0  0
  -51.4920   -0.1300  -28.2220 C   0  0  0  0  0  0  0  0  0  0  0  0
  -56.0250   -0.6060  -27.8560 N   0  0  0  0  0  0  0  0  0  0  0  0
  -51.3790   -2.7980  -26.3890 C   0  0  0  0  0  0  0  0  0  0  0  0
  -55.1370    0.3750  -25.9490 N   0  0  0  0  0  0  0  0  0  0  0  0
  -51.8030   -0.6690  -19.3070 C   0  0  0  0  0  0  0  0  0  0  0  0
  -52.8290   -1.5520  -29.8710 O   0  0  0  0  0  0  0  0  0  0  0  0
  -53.5400    0.9720  -19.9470 N   0  0  0  0  0  0  0  0  0  0  0  0
  -57.1070    0.2090  -27.7750 C   0  0  0  0  0  0  0  0  0  0  0  0
 20 21  1  0
  3 14  2  0
 12 25  1  0
 13 21  1  0
  1 13  1  0
 20 14  1  0
 29  6  2  0
 27 18  2  0
 11 18  2  0
 16 20  2  0
 19 12  1  0
 17 24  1  0
 13 10  1  0
  6 15  1  0
 17  2  1  0
 18 17  1  0
 23 29  1  0
  8 26  1  0
 15  7  1  0
  4 16  1  0
 14 28  1  0
 23 12  2  0
 18 22  1  0
  8 28  2  0
  4  5  2  0
  5  3  1  0
  7  4  1  0
  9 17  1  0
 25 15  2  0
  2 19  1  0
 21  8  1  0
A    1
C13
A    2
C22
A    3
C5
A    4
C7
A    5
N6
A    6
C16
A    7
N14
A    8
C2
A    9
C25
A   10
C12
A   11
O28
A   12
C19
A   13
C11
A   14
C4
A   15
C15
A   16
C8
A   17
C23
A   18
S26
A   19
O21
A   20
C9
A   21
N10
A   22
C29
A   23
N18
A   24
C24
A   25
N20
A   26
C1
A   27
O27
A   28
N3
A   29
C17
M  END
>  <InstanceId>  (17) 
5CAP_4ZH_A_1103

>  <ChemCompId>  (17) 
4ZH

>  <PdbId>  (17) 
5CAP

>  <ChainId>  (17) 
A

>  <ResidueNumber>  (17) 
1103

>  <InsertionCode>  (17) 


>  <Model>  (17) 
1

>  <AltIds>  (17) 


>  <MissingHeavyAtoms>  (17) 
0

>  <ObservedFormula>  (17) 
C19 N6 O3 S

>  <AsymId>  (17) 
D

>  <SeqNum>  (17) 
1103

>  <Name>  (17) 
2-methyl-N-[2-(2-methyl-2-methylsulfonyl-propoxy)pyrimidin-4-yl]-1-propan-2-yl-imidazo[4,5-c]pyridin-6-amine

>  <SystematicName>  (17) 
2-methyl-N-[2-(2-methyl-2-methylsulfonyl-propoxy)pyrimidin-4-yl]-1-propan-2-yl-imidazo[4,5-c]pyridin-6-amine

>  <Synonyms>  (17) 


>  <Type>  (17) 
NON-POLYMER

>  <Formula>  (17) 
C19 H26 N6 O3 S

>  <MolecularWeight>  (17) 
418.513

>  <ModifiedDate>  (17) 
2015-10-23

>  <Parent>  (17) 


>  <OneLetterCode>  (17) 


>  <SubcomponentList>  (17) 


>  <AmbiguousFlag>  (17) 
N

>  <InChI>  (17) 
null

>  <InChIKey>  (17) 
null

>  <SMILES>  (17) 
Cc1nc2cnc(cc2n1C(C)C)Nc3ccnc(n3)OCC(C)(C)S(=O)(=O)C

>  <pKI>  (17) 
5.68

>  <ChemblID>  (17) 
CHEMBL3736210

>  <standardized_canonical_smiles>  (17) 
Cc1nc2cnc(Nc3ccnc(OCC(C)(C)S(C)(=O)=O)n3)cc2n1C(C)C

$$$$
5CAQ_4ZJ_A_1102
     RDKit          3D

 29 32  0  0  0  0  0  0  0  0999 V2000
  -52.7160    1.3730  -19.6110 C   0  0  0  0  0  0  0  0  0  0  0  0
  -53.7120    2.3380  -19.7850 C   0  0  0  0  0  0  0  0  0  0  0  0
  -50.7120   -1.1740  -21.2660 C   0  0  0  0  0  0  0  0  0  0  0  0
  -53.9860    1.7650  -22.0390 C   0  0  0  0  0  0  0  0  0  0  0  0
  -52.9670    0.8260  -21.9580 C   0  0  0  0  0  0  0  0  0  0  0  0
  -52.3360    0.6060  -20.7330 C   0  0  0  0  0  0  0  0  0  0  0  0
  -51.2020   -2.6190  -21.1340 C   0  0  0  0  0  0  0  0  0  0  0  0
  -49.2340   -0.9420  -21.5560 C   0  0  0  0  0  0  0  0  0  0  0  0
  -51.9310    0.9620  -18.5800 N   0  0  0  0  0  0  0  0  0  0  0  0
  -50.1270   -0.6150  -18.0300 C   0  0  0  0  0  0  0  0  0  0  0  0
  -51.1090    0.0310  -18.9770 C   0  0  0  0  0  0  0  0  0  0  0  0
  -54.3140    2.4820  -20.9610 N   0  0  0  0  0  0  0  0  0  0  0  0
  -51.3300   -0.2340  -20.3180 N   0  0  0  0  0  0  0  0  0  0  0  0
  -54.6320    2.0420  -23.2530 N   0  0  0  0  0  0  0  0  0  0  0  0
  -54.7720    1.1860  -24.3440 C   0  0  0  0  0  0  0  0  0  0  0  0
  -55.9330    1.2570  -25.1350 C   0  0  0  0  0  0  0  0  0  0  0  0
  -56.0550    0.4000  -26.2200 C   0  0  0  0  0  0  0  0  0  0  0  0
  -55.0700   -0.4610  -26.4710 N   0  0  0  0  0  0  0  0  0  0  0  0
  -53.9730   -0.5350  -25.7030 C   0  0  0  0  0  0  0  0  0  0  0  0
  -53.8260    0.2990  -24.6680 N   0  0  0  0  0  0  0  0  0  0  0  0
  -52.9610   -1.4520  -25.9940 N   0  0  0  0  0  0  0  0  0  0  0  0
  -51.7870   -1.5820  -25.0880 C   0  0  0  0  0  0  0  0  0  0  0  0
  -50.4760   -1.5250  -25.8940 C   0  0  0  0  0  0  0  0  0  0  0  0
  -50.5320   -2.5790  -27.0240 C   0  0  0  0  0  0  0  0  0  0  0  0
  -51.7000   -2.2680  -27.9810 C   0  0  0  0  0  0  0  0  0  0  0  0
  -53.0320   -2.2840  -27.2260 C   0  0  0  0  0  0  0  0  0  0  0  0
  -51.5560   -0.9550  -28.4310 F   0  0  0  0  0  0  0  0  0  0  0  0
  -49.3080   -2.5650  -27.7710 O   0  0  0  0  0  0  0  0  0  0  0  0
  -48.4450   -3.6800  -27.5440 C   0  0  0  0  0  0  0  0  0  0  0  0
  2  1  2  0
  6  1  1  0
  9  1  1  0
 12  2  1  0
  7  3  1  0
  8  3  1  0
 13  3  1  0
  5  4  1  0
 12  4  2  0
 14  4  1  0
  6  5  2  0
 13  6  1  0
 11  9  2  0
 11 10  1  0
 13 11  1  0
 15 14  1  0
 16 15  2  0
 20 15  1  0
 17 16  1  0
 18 17  2  0
 19 18  1  0
 20 19  2  0
 21 19  1  0
 22 21  1  0
 26 21  1  0
 23 22  1  0
 24 23  1  0
 25 24  1  0
 28 24  1  0
 26 25  1  0
 27 25  1  0
 29 28  1  0
A    1
C4
A    2
C5
A    3
C11
A    4
C7
A    5
C8
A    6
C9
A    7
C12
A    8
C13
A    9
N3
A   10
C1
A   11
C2
A   12
N6
A   13
N10
A   14
N14
A   15
C15
A   16
C16
A   17
C17
A   18
N18
A   19
C19
A   20
N20
A   21
N21
A   22
C22
A   23
C23
A   24
C24
A   25
C25
A   26
C26
A   27
F27
A   28
O28
A   29
C29
M  END
>  <Id>  (18) 
5CAQ_4ZJ_A_1102

>  <ChainId>  (18) 
A

>  <AsymId>  (18) 
C

>  <SeqNum>  (18) 
1102

>  <Name>  (18) 
N-[2-[(3R,4S)-3-fluoranyl-4-methoxy-piperidin-1-yl]pyrimidin-4-yl]-2-methyl-1-propan-2-yl-imidazo[4,5-c]pyridin-6-amine

>  <SystematicName>  (18) 
N-[2-[(3R,4S)-3-fluoranyl-4-methoxy-piperidin-1-yl]pyrimidin-4-yl]-2-methyl-1-propan-2-yl-imidazo[4,5-c]pyridin-6-amine

>  <Synonyms>  (18) 


>  <Type>  (18) 
NON-POLYMER

>  <Formula>  (18) 
C20 H26 F N7 O

>  <ObservedFormula>  (18) 
C20 F N7 O

>  <MolecularWeight>  (18) 
399.465

>  <ModifiedDate>  (18) 
2015-10-23

>  <Parent>  (18) 


>  <OneLetterCode>  (18) 


>  <SubcomponentList>  (18) 


>  <AmbiguousFlag>  (18) 
N

>  <InsertionCode>  (18) 


>  <InstanceId>  (18) 
5CAQ_4ZJ_A_1102

>  <ChemCompId>  (18) 
4ZJ

>  <PdbId>  (18) 
5CAQ

>  <ResidueNumber>  (18) 
1102

>  <InChI>  (18) 
InChI=1S/C20H26FN7O/c1-12(2)28-13(3)24-15-10-23-19(9-16(15)28)25-18-5-7-22-20(26-18)27-8-6-17(29-4)14(21)11-27/h5,7,9-10,12,14,17H,6,8,11H2,1-4H3,(H,22,23,25,26)/t14-,17+/m1/s1

>  <InChIKey>  (18) 
WBAMFNDJQOEJFN-PBHICJAKSA-N

>  <SMILES>  (18) 
Cc1nc2cnc(cc2n1C(C)C)Nc3ccnc(n3)N4CC[C@@H]([C@@H](C4)F)OC

>  <MissingHeavyAtoms>  (18) 
0

>  <Model>  (18) 
1

>  <AltIds>  (18) 


>  <pKI>  (18) 
5.97

>  <ChemblID>  (18) 
CHEMBL3736183

>  <standardized_canonical_smiles>  (18) 
CO[C@H]1CCN(c2nccc(Nc3cc4c(cn3)nc(C)n4C(C)C)n2)C[C@H]1F

$$$$
5EDQ_5N3_A_1101
     RDKit          3D

 27 31  0  0  0  0  0  0  0  0999 V2000
  -51.3930   -1.1170  -24.8240 C   0  0  0  0  0  0  0  0  0  0  0  0
  -55.5810    1.8310  -25.1950 C   0  0  0  0  0  0  0  0  0  0  0  0
  -52.1070   -0.5880  -25.9020 C   0  0  0  0  0  0  0  0  0  0  0  0
  -53.5250    0.4880  -24.4130 C   0  0  0  0  0  0  0  0  0  0  0  0
  -54.6630    1.4150  -24.2100 C   0  0  0  0  0  0  0  0  0  0  0  0
  -54.9710    2.0740  -23.0530 C   0  0  0  0  0  0  0  0  0  0  0  0
  -51.8090   -0.7950  -23.5340 C   0  0  0  0  0  0  0  0  0  0  0  0
  -50.0310   -0.4510  -21.8250 C   0  0  0  0  0  0  0  0  0  0  0  0
  -50.8860   -1.4930  -22.5630 C   0  0  0  0  0  0  0  0  0  0  0  0
  -53.1550    0.1980  -25.6510 N   0  0  0  0  0  0  0  0  0  0  0  0
  -52.8640   -0.0020  -23.3660 N   0  0  0  0  0  0  0  0  0  0  0  0
  -56.0480    2.8350  -23.2920 N   0  0  0  0  0  0  0  0  0  0  0  0
  -56.4080    2.6650  -24.6330 N   0  0  0  0  0  0  0  0  0  0  0  0
  -51.7040   -0.8790  -27.1960 N   0  0  0  0  0  0  0  0  0  0  0  0
  -52.3170   -0.3730  -28.3420 C   0  0  0  0  0  0  0  0  0  0  0  0
  -52.6250    1.0250  -28.6660 C   0  0  0  0  0  0  0  0  0  0  0  0
  -52.4990    2.2630  -28.0050 C   0  0  0  0  0  0  0  0  0  0  0  0
  -52.9100    3.4190  -28.6290 C   0  0  0  0  0  0  0  0  0  0  0  0
  -53.4120    3.3920  -29.9350 C   0  0  0  0  0  0  0  0  0  0  0  0
  -53.5810    2.1760  -30.5750 C   0  0  0  0  0  0  0  0  0  0  0  0
  -53.1740    0.9940  -29.9640 C   0  0  0  0  0  0  0  0  0  0  0  0
  -53.1860   -0.3050  -30.3760 N   0  0  0  0  0  0  0  0  0  0  0  0
  -52.6480   -1.1010  -29.3700 N   0  0  0  0  0  0  0  0  0  0  0  0
  -54.2180    2.0570  -32.1770 Cl  0  0  0  0  0  0  0  0  0  0  0  0
  -50.1940   -2.0250  -24.7290 C   0  0  0  0  0  0  0  0  0  0  0  0
  -50.0650   -2.3910  -23.3400 O   0  0  0  0  0  0  0  0  0  0  0  0
  -51.7030   -2.3080  -21.5560 C   0  0  0  0  0  0  0  0  0  0  0  0
  3  1  1  0
  7  1  2  0
 25  1  1  0
  5  2  1  0
 13  2  2  0
 10  3  2  0
 14  3  1  0
  5  4  1  0
 10  4  1  0
 11  4  2  0
  6  5  2  0
 12  6  1  0
  9  7  1  0
 11  7  1  0
  9  8  1  0
 26  9  1  0
 27  9  1  0
 13 12  1  0
 15 14  1  0
 16 15  1  0
 23 15  2  0
 17 16  2  0
 21 16  1  0
 18 17  1  0
 19 18  2  0
 20 19  1  0
 21 20  2  0
 24 20  1  0
 22 21  1  0
 23 22  1  0
 26 25  1  0
A    1
C4
A    2
C14
A    3
C5
A    4
C7
A    5
C9
A    6
C10
A    7
C3
A    8
C1
A    9
C2
A   10
N6
A   11
N8
A   12
N11
A   13
N13
A   14
N15
A   15
C16
A   16
C17
A   17
C18
A   18
C19
A   19
C20
A   20
C21
A   21
C22
A   22
N23
A   23
N25
A   24
CL
A   25
C27
A   26
O28
A   27
C29
M  END
>  <Id>  (19) 
5EDQ_5N3_A_1101

>  <ChainId>  (19) 
A

>  <AsymId>  (19) 
B

>  <SeqNum>  (19) 
1101

>  <Name>  (19) 
~{N}-(7-chloranyl-1~{H}-indazol-3-yl)-7,7-dimethyl-2-(1~{H}-pyrazol-4-yl)-5~{H}-furo[3,4-d]pyrimidin-4-amine

>  <SystematicName>  (19) 
~{N}-(7-chloranyl-1~{H}-indazol-3-yl)-7,7-dimethyl-2-(1~{H}-pyrazol-4-yl)-5~{H}-furo[3,4-d]pyrimidin-4-amine

>  <Synonyms>  (19) 


>  <Type>  (19) 
NON-POLYMER

>  <Formula>  (19) 
C18 H16 Cl N7 O

>  <ObservedFormula>  (19) 
C18 Cl N7 O

>  <MolecularWeight>  (19) 
381.819

>  <ModifiedDate>  (19) 
2015-11-27

>  <Parent>  (19) 


>  <OneLetterCode>  (19) 


>  <SubcomponentList>  (19) 


>  <AmbiguousFlag>  (19) 
N

>  <InsertionCode>  (19) 


>  <InstanceId>  (19) 
5EDQ_5N3_A_1101

>  <ChemCompId>  (19) 
5N3

>  <PdbId>  (19) 
5EDQ

>  <ResidueNumber>  (19) 
1101

>  <InChI>  (19) 
InChI=1S/C18H16ClN7O/c1-18(2)14-11(8-27-18)16(23-15(22-14)9-6-20-21-7-9)24-17-10-4-3-5-12(19)13(10)25-26-17/h3-7H,8H2,1-2H3,(H,20,21)(H2,22,23,24,25,26)

>  <InChIKey>  (19) 
OWTUZFHMSVAQSQ-UHFFFAOYSA-N

>  <SMILES>  (19) 
CC1(c2c(c(nc(n2)c3c[nH]nc3)Nc4c5cccc(c5[nH]n4)Cl)CO1)C

>  <MissingHeavyAtoms>  (19) 
0

>  <Model>  (19) 
1

>  <AltIds>  (19) 


>  <pKI>  (19) 
8.82

>  <ChemblID>  (19) 
CHEMBL3758602

>  <standardized_canonical_smiles>  (19) 
CC1(C)OCc2c(Nc3[nH]nc4c(Cl)cccc34)nc(-c3cn[nH]c3)nc21

$$$$
5EDR_5N4_A_1101
     RDKit          3D

 27 31  0  0  0  0  0  0  0  0999 V2000
  -51.1190   -0.9520  -24.6210 C   0  0  0  0  0  0  0  0  0  0  0  0
  -54.7240    1.7880  -21.8010 C   0  0  0  0  0  0  0  0  0  0  0  0
  -51.7440   -0.4470  -25.7700 C   0  0  0  0  0  0  0  0  0  0  0  0
  -56.4270    2.4670  -24.9100 C   0  0  0  0  0  0  0  0  0  0  0  0
  -53.3540    0.5510  -24.4070 C   0  0  0  0  0  0  0  0  0  0  0  0
  -54.5890    1.3630  -24.3160 C   0  0  0  0  0  0  0  0  0  0  0  0
  -55.3590    1.7240  -25.3860 C   0  0  0  0  0  0  0  0  0  0  0  0
  -51.6850   -0.6700  -23.3750 C   0  0  0  0  0  0  0  0  0  0  0  0
  -50.1220   -0.1900  -21.5060 C   0  0  0  0  0  0  0  0  0  0  0  0
  -50.8250   -1.3030  -22.3020 C   0  0  0  0  0  0  0  0  0  0  0  0
  -52.8600    0.2680  -25.6050 N   0  0  0  0  0  0  0  0  0  0  0  0
  -52.7860    0.0640  -23.3140 N   0  0  0  0  0  0  0  0  0  0  0  0
  -56.3170    2.5860  -23.6120 N   0  0  0  0  0  0  0  0  0  0  0  0
  -55.1790    1.8890  -23.1920 N   0  0  0  0  0  0  0  0  0  0  0  0
  -51.2130   -0.6850  -27.0360 N   0  0  0  0  0  0  0  0  0  0  0  0
  -51.7040   -0.1170  -28.2290 C   0  0  0  0  0  0  0  0  0  0  0  0
  -52.0740    1.2860  -28.5080 C   0  0  0  0  0  0  0  0  0  0  0  0
  -52.1010    2.4780  -27.7580 C   0  0  0  0  0  0  0  0  0  0  0  0
  -52.5440    3.6370  -28.3490 C   0  0  0  0  0  0  0  0  0  0  0  0
  -52.9260    3.6680  -29.7020 C   0  0  0  0  0  0  0  0  0  0  0  0
  -52.8910    2.5310  -30.4620 C   0  0  0  0  0  0  0  0  0  0  0  0
  -52.4770    1.3230  -29.8700 C   0  0  0  0  0  0  0  0  0  0  0  0
  -52.3510    0.0440  -30.3440 N   0  0  0  0  0  0  0  0  0  0  0  0
  -51.8870   -0.7920  -29.3330 N   0  0  0  0  0  0  0  0  0  0  0  0
  -49.8800   -1.7790  -24.3900 C   0  0  0  0  0  0  0  0  0  0  0  0
  -49.8780   -2.1470  -22.9930 O   0  0  0  0  0  0  0  0  0  0  0  0
  -51.6770   -2.1740  -21.3640 C   0  0  0  0  0  0  0  0  0  0  0  0
  3  1  1  0
  8  1  2  0
 25  1  1  0
 14  2  1  0
 11  3  2  0
 15  3  1  0
  7  4  1  0
 13  4  2  0
  6  5  1  0
 11  5  1  0
 12  5  2  0
  7  6  2  0
 14  6  1  0
 10  8  1  0
 12  8  1  0
 10  9  1  0
 26 10  1  0
 27 10  1  0
 14 13  1  0
 16 15  1  0
 17 16  1  0
 24 16  2  0
 18 17  2  0
 22 17  1  0
 19 18  1  0
 20 19  2  0
 21 20  1  0
 22 21  2  0
 23 22  1  0
 24 23  1  0
 26 25  1  0
A    1
C4
A    2
C14
A    3
C5
A    4
C11
A    5
C7
A    6
C9
A    7
C10
A    8
C3
A    9
C1
A   10
C2
A   11
N6
A   12
N8
A   13
N12
A   14
N13
A   15
N15
A   16
C16
A   17
C17
A   18
C18
A   19
C19
A   20
C20
A   21
C21
A   22
C22
A   23
N23
A   24
N25
A   25
C26
A   26
O27
A   27
C28
M  END
>  <Id>  (20) 
5EDR_5N4_A_1101

>  <ChainId>  (20) 
A

>  <AsymId>  (20) 
B

>  <SeqNum>  (20) 
1101

>  <Name>  (20) 
~{N}-(1~{H}-indazol-3-yl)-7,7-dimethyl-2-(2-methylpyrazol-3-yl)-5~{H}-furo[3,4-d]pyrimidin-4-amine

>  <SystematicName>  (20) 
~{N}-(1~{H}-indazol-3-yl)-7,7-dimethyl-2-(2-methylpyrazol-3-yl)-5~{H}-furo[3,4-d]pyrimidin-4-amine

>  <Synonyms>  (20) 


>  <Type>  (20) 
NON-POLYMER

>  <Formula>  (20) 
C19 H19 N7 O

>  <ObservedFormula>  (20) 
C19 N7 O

>  <MolecularWeight>  (20) 
361.4

>  <ModifiedDate>  (20) 
2015-11-27

>  <Parent>  (20) 


>  <OneLetterCode>  (20) 


>  <SubcomponentList>  (20) 


>  <AmbiguousFlag>  (20) 
N

>  <InsertionCode>  (20) 


>  <InstanceId>  (20) 
5EDR_5N4_A_1101

>  <ChemCompId>  (20) 
5N4

>  <PdbId>  (20) 
5EDR

>  <ResidueNumber>  (20) 
1101

>  <InChI>  (20) 
InChI=1S/C19H19N7O/c1-19(2)15-12(10-27-19)16(23-18(21-15)14-8-9-20-26(14)3)22-17-11-6-4-5-7-13(11)24-25-17/h4-9H,10H2,1-3H3,(H2,21,22,23,24,25)

>  <InChIKey>  (20) 
HMWMAHXTIWOHMD-UHFFFAOYSA-N

>  <SMILES>  (20) 
CC1(c2c(c(nc(n2)c3ccnn3C)Nc4c5ccccc5[nH]n4)CO1)C

>  <MissingHeavyAtoms>  (20) 
0

>  <Model>  (20) 
1

>  <AltIds>  (20) 


>  <pKI>  (20) 
8.96

>  <ChemblID>  (20) 
CHEMBL3759096

>  <standardized_canonical_smiles>  (20) 
Cn1nccc1-c1nc(Nc2[nH]nc3ccccc23)c2c(n1)C(C)(C)OC2

$$$$
4ZAU_YY3_A_1101
     RDKit          3D

 37 40  0  0  0  0  0  0  0  0999 V2000
   -3.2190  -49.7970   11.0900 C   0  0  0  0  0  0  0  0  0  0  0  0
   -2.4360  -49.0430   12.0780 N   0  0  0  0  0  0  0  0  0  0  0  0
   -3.1940  -48.2140   13.0480 C   0  0  0  0  0  0  0  0  0  0  0  0
   -1.8790  -50.1420   12.9170 C   0  0  0  0  0  0  0  0  0  0  0  0
   -0.3450  -50.2720   12.7500 C   0  0  0  0  0  0  0  0  0  0  0  0
    0.2540  -49.4220   13.8270 N   0  0  0  0  0  0  0  0  0  0  0  0
    1.2860  -48.4860   13.3050 C   0  0  0  0  0  0  0  0  0  0  0  0
    1.8270  -50.9880   14.7920 C   0  0  0  0  0  0  0  0  0  0  0  0
    2.2570  -51.7560   15.8830 C   0  0  0  0  0  0  0  0  0  0  0  0
    3.3840  -52.5630   15.7970 O   0  0  0  0  0  0  0  0  0  0  0  0
    4.2560  -52.2140   14.7430 C   0  0  0  0  0  0  0  0  0  0  0  0
    0.6890  -50.2020   14.9230 C   0  0  0  0  0  0  0  0  0  0  0  0
   -0.0870  -50.1800   16.1140 C   0  0  0  0  0  0  0  0  0  0  0  0
   -1.1890  -49.3830   16.2610 N   0  0  0  0  0  0  0  0  0  0  0  0
   -2.2310  -49.6780   17.0600 C   0  0  0  0  0  0  0  0  0  0  0  0
   -2.2740  -50.7450   17.6610 O   0  0  0  0  0  0  0  0  0  0  0  0
   -3.3970  -48.6770   17.2180 C   0  0  0  0  0  0  0  0  0  0  0  0
   -4.5960  -48.9250   18.0680 C   0  0  0  0  0  0  0  0  0  0  0  0
    0.3770  -50.9640   17.2040 C   0  0  0  0  0  0  0  0  0  0  0  0
    1.5390  -51.7450   17.1020 C   0  0  0  0  0  0  0  0  0  0  0  0
    2.0390  -52.5820   18.1300 N   0  0  0  0  0  0  0  0  0  0  0  0
    1.6980  -52.5930   19.4850 C   0  0  0  0  0  0  0  0  0  0  0  0
    0.9690  -51.6510   20.0690 N   0  0  0  0  0  0  0  0  0  0  0  0
    2.1650  -53.6150   20.2090 N   0  0  0  0  0  0  0  0  0  0  0  0
    1.8870  -53.7180   21.5680 C   0  0  0  0  0  0  0  0  0  0  0  0
    1.1370  -52.7430   22.1890 C   0  0  0  0  0  0  0  0  0  0  0  0
    0.6750  -51.6860   21.3960 C   0  0  0  0  0  0  0  0  0  0  0  0
   -0.1460  -50.6020   22.0120 C   0  0  0  0  0  0  0  0  0  0  0  0
   -0.4110  -49.3940   21.4760 C   0  0  0  0  0  0  0  0  0  0  0  0
   -0.0560  -48.8180   20.3070 C   0  0  0  0  0  0  0  0  0  0  0  0
   -0.4670  -47.5300   19.9650 C   0  0  0  0  0  0  0  0  0  0  0  0
   -1.2660  -46.8340   20.8660 C   0  0  0  0  0  0  0  0  0  0  0  0
   -1.6160  -47.4370   22.0710 C   0  0  0  0  0  0  0  0  0  0  0  0
   -1.1720  -48.7260   22.3530 C   0  0  0  0  0  0  0  0  0  0  0  0
   -1.3740  -49.5080   23.4040 N   0  0  0  0  0  0  0  0  0  0  0  0
   -2.1580  -49.1370   24.5860 C   0  0  0  0  0  0  0  0  0  0  0  0
   -0.7510  -50.6610   23.2050 C   0  0  0  0  0  0  0  0  0  0  0  0
  2  1  1  0
  3  2  1  0
  4  2  1  0
  5  4  1  0
  6  5  1  0
  7  6  1  0
 12  6  1  0
  9  8  2  0
 12  8  1  0
 10  9  1  0
 20  9  1  0
 11 10  1  0
 13 12  2  0
 14 13  1  0
 19 13  1  0
 15 14  1  0
 16 15  2  0
 17 15  1  0
 18 17  2  0
 20 19  2  0
 21 20  1  0
 22 21  1  0
 23 22  2  0
 24 22  1  0
 27 23  1  0
 25 24  2  0
 26 25  1  0
 27 26  2  0
 28 27  1  0
 29 28  1  0
 37 28  2  0
 30 29  2  0
 34 29  1  0
 31 30  1  0
 32 31  2  0
 33 32  1  0
 34 33  2  0
 35 34  1  0
 36 35  1  0
 37 35  1  0
A    1
C13
A    2
N2
A    3
C12
A    4
C11
A    5
C10
A    6
N1
A    7
C28
A    8
C3
A    9
C4
A   10
O1
A   11
C14
A   12
C2
A   13
C1
A   14
N
A   15
C7
A   16
O
A   17
C8
A   18
C9
A   19
C6
A   20
C5
A   21
N3
A   22
C15
A   23
N5
A   24
N4
A   25
C16
A   26
C17
A   27
C18
A   28
C19
A   29
C26
A   30
C25
A   31
C24
A   32
C23
A   33
C22
A   34
C21
A   35
N6
A   36
C27
A   37
C20
M  END
>  <Id>  (21) 
4ZAU_YY3_A_1101

>  <ChainId>  (21) 
A

>  <AsymId>  (21) 
B

>  <SeqNum>  (21) 
1101

>  <Name>  (21) 
N-(2-{[2-(dimethylamino)ethyl](methyl)amino}-4-methoxy-5-{[4-(1-methyl-1H-indol-3-yl)pyrimidin-2-yl]amino}phenyl)prop-2-enamide

>  <SystematicName>  (21) 
N-[2-[2-(dimethylamino)ethyl-methyl-amino]-4-methoxy-5-[[4-(1-methylindol-3-yl)pyrimidin-2-yl]amino]phenyl]prop-2-enamide

>  <Synonyms>  (21) 


>  <Type>  (21) 
NON-POLYMER

>  <Formula>  (21) 
C28 H33 N7 O2

>  <ObservedFormula>  (21) 
C28 N7 O2

>  <MolecularWeight>  (21) 
499.607

>  <ModifiedDate>  (21) 
2015-11-06

>  <Parent>  (21) 


>  <OneLetterCode>  (21) 


>  <SubcomponentList>  (21) 


>  <AmbiguousFlag>  (21) 
N

>  <InsertionCode>  (21) 


>  <InstanceId>  (21) 
4ZAU_YY3_A_1101

>  <ChemCompId>  (21) 
YY3

>  <PdbId>  (21) 
4ZAU

>  <ResidueNumber>  (21) 
1101

>  <InChI>  (21) 
InChI=1S/C28H33N7O2/c1-7-27(36)30-22-16-23(26(37-6)17-25(22)34(4)15-14-33(2)3)32-28-29-13-12-21(31-28)20-18-35(5)24-11-9-8-10-19(20)24/h7-13,16-18H,1,14-15H2,2-6H3,(H,30,36)(H,29,31,32)

>  <InChIKey>  (21) 
DUYJMQONPNNFPI-UHFFFAOYSA-N

>  <SMILES>  (21) 
Cn1cc(c2c1cccc2)c3ccnc(n3)Nc4cc(c(cc4OC)N(C)CCN(C)C)NC(=O)C=C

>  <MissingHeavyAtoms>  (21) 
0

>  <Model>  (21) 
1

>  <AltIds>  (21) 


>  <pKI>  (21) 
8.46

>  <ChemblID>  (21) 
CHEMBL3353410

>  <standardized_canonical_smiles>  (21) 
C=CC(=O)Nc1cc(Nc2nccc(-c3cn(C)c4ccccc34)n2)c(OC)cc1N(C)CCN(C)C

$$$$
5EM5_5Q2_A_1101
     RDKit          3D

 33 36  0  0  0  0  0  0  0  0999 V2000
  -53.1760   -0.1460  -15.6080 C   0  0  0  0  0  0  0  0  0  0  0  0
  -50.9400    0.9570  -15.8280 C   0  0  0  0  0  0  0  0  0  0  0  0
  -53.4590    1.4910  -20.2650 C   0  0  0  0  0  0  0  0  0  0  0  0
  -50.7720    0.8490  -14.2950 C   0  0  0  0  0  0  0  0  0  0  0  0
  -52.6830    1.1350  -17.5790 C   0  0  0  0  0  0  0  0  0  0  0  0
  -51.9070    0.5980  -18.6240 C   0  0  0  0  0  0  0  0  0  0  0  0
  -52.2860    0.7820  -19.9530 C   0  0  0  0  0  0  0  0  0  0  0  0
  -54.2340    1.9980  -19.2220 C   0  0  0  0  0  0  0  0  0  0  0  0
  -53.8570    1.8260  -17.9010 C   0  0  0  0  0  0  0  0  0  0  0  0
  -51.6020   -0.2580  -13.7650 N   0  0  0  0  0  0  0  0  0  0  0  0
  -53.0350   -0.1100  -14.0810 C   0  0  0  0  0  0  0  0  0  0  0  0
  -51.3960   -0.4830  -12.3270 C   0  0  0  0  0  0  0  0  0  0  0  0
  -52.3770    0.9530  -16.2090 N   0  0  0  0  0  0  0  0  0  0  0  0
  -53.9660    1.6930  -21.5690 N   0  0  0  0  0  0  0  0  0  0  0  0
  -53.8600    0.8780  -22.6580 C   0  0  0  0  0  0  0  0  0  0  0  0
  -53.2020   -0.1460  -22.5840 O   0  0  0  0  0  0  0  0  0  0  0  0
  -54.5720    1.1990  -23.9260 C   0  0  0  0  0  0  0  0  0  0  0  0
  -54.3120    0.4830  -25.1430 C   0  0  0  0  0  0  0  0  0  0  0  0
  -55.0540    0.8310  -26.3050 C   0  0  0  0  0  0  0  0  0  0  0  0
  -55.9980    1.7960  -26.2800 C   0  0  0  0  0  0  0  0  0  0  0  0
  -56.2650    2.4610  -25.1300 N   0  0  0  0  0  0  0  0  0  0  0  0
  -55.6060    2.2070  -23.9720 C   0  0  0  0  0  0  0  0  0  0  0  0
  -55.9300    2.8740  -22.9960 O   0  0  0  0  0  0  0  0  0  0  0  0
  -53.3470   -0.5210  -25.2040 N   0  0  0  0  0  0  0  0  0  0  0  0
  -53.1530   -1.4860  -26.3050 C   0  0  0  0  0  0  0  0  0  0  0  0
  -51.8700   -1.1600  -27.0840 C   0  0  0  0  0  0  0  0  0  0  0  0
  -52.0730    0.1420  -27.8180 C   0  0  0  0  0  0  0  0  0  0  0  0
  -51.8040    1.3430  -27.1620 C   0  0  0  0  0  0  0  0  0  0  0  0
  -52.0640    2.5580  -27.7690 C   0  0  0  0  0  0  0  0  0  0  0  0
  -52.5450    2.5620  -29.0690 C   0  0  0  0  0  0  0  0  0  0  0  0
  -52.7570    1.3690  -29.7580 C   0  0  0  0  0  0  0  0  0  0  0  0
  -52.5530    0.1490  -29.1250 C   0  0  0  0  0  0  0  0  0  0  0  0
  -52.8310    4.0860  -29.8300 Cl  0  0  0  0  0  0  0  0  0  0  0  0
 11  1  1  0
 13  1  1  0
  4  2  1  0
 13  2  1  0
  7  3  2  0
  8  3  1  0
 14  3  1  0
 10  4  1  0
  6  5  2  0
  9  5  1  0
 13  5  1  0
  7  6  1  0
  9  8  2  0
 11 10  1  0
 12 10  1  0
 15 14  1  0
 16 15  2  0
 17 15  1  0
 18 17  2  0
 22 17  1  0
 19 18  1  0
 24 18  1  0
 20 19  2  0
 21 20  1  0
 22 21  1  0
 23 22  2  0
 25 24  1  0
 26 25  1  0
 27 26  1  0
 28 27  2  0
 32 27  1  0
 29 28  1  0
 30 29  2  0
 31 30  1  0
 33 30  1  0
 32 31  2  0
A    1
C4
A    2
C6
A    3
C11
A    4
C7
A    5
C8
A    6
C9
A    7
C10
A    8
C12
A    9
C13
A   10
N2
A   11
C3
A   12
C1
A   13
N5
A   14
N14
A   15
C15
A   16
O16
A   17
C17
A   18
C18
A   19
C19
A   20
C20
A   21
N21
A   22
C23
A   23
O24
A   24
N25
A   25
C26
A   26
C27
A   27
C28
A   28
C29
A   29
C30
A   30
C31
A   31
C32
A   32
C33
A   33
CL
M  END
>  <Id>  (22) 
5EM5_5Q2_A_1101

>  <ChainId>  (22) 
A

>  <AsymId>  (22) 
B

>  <SeqNum>  (22) 
1101

>  <Name>  (22) 
4-[2-(4-chlorophenyl)ethylamino]-~{N}-[4-(4-methylpiperazin-1-yl)phenyl]-2-oxidanylidene-1~{H}-pyridine-3-carboxamide

>  <SystematicName>  (22) 
4-[2-(4-chlorophenyl)ethylamino]-~{N}-[4-(4-methylpiperazin-1-yl)phenyl]-2-oxidanylidene-1~{H}-pyridine-3-carboxamide

>  <Synonyms>  (22) 


>  <Type>  (22) 
NON-POLYMER

>  <Formula>  (22) 
C25 H28 Cl N5 O2

>  <ObservedFormula>  (22) 
C25 Cl N5 O2

>  <MolecularWeight>  (22) 
465.975

>  <ModifiedDate>  (22) 
2015-12-24

>  <Parent>  (22) 


>  <OneLetterCode>  (22) 


>  <SubcomponentList>  (22) 


>  <AmbiguousFlag>  (22) 
N

>  <InsertionCode>  (22) 


>  <InstanceId>  (22) 
5EM5_5Q2_A_1101

>  <ChemCompId>  (22) 
5Q2

>  <PdbId>  (22) 
5EM5

>  <ResidueNumber>  (22) 
1101

>  <InChI>  (22) 
InChI=1S/C25H28ClN5O2/c1-30-14-16-31(17-15-30)21-8-6-20(7-9-21)29-25(33)23-22(11-13-28-24(23)32)27-12-10-18-2-4-19(26)5-3-18/h2-9,11,13H,10,12,14-17H2,1H3,(H,29,33)(H2,27,28,32)

>  <InChIKey>  (22) 
MOSAREMUBHMKIV-UHFFFAOYSA-N

>  <SMILES>  (22) 
CN1CCN(CC1)c2ccc(cc2)NC(=O)C3=C(C=CNC3=O)NCCc4ccc(cc4)Cl

>  <MissingHeavyAtoms>  (22) 
0

>  <Model>  (22) 
1

>  <AltIds>  (22) 


>  <pKI>  (22) 
7.43

>  <ChemblID>  (22) 
CHEMBL3780553

>  <standardized_canonical_smiles>  (22) 
CN1CCN(c2ccc(NC(=O)c3c(NCCc4ccc(Cl)cc4)cc[nH]c3=O)cc2)CC1

$$$$
5EM8_5Q4_A_1101
     RDKit          3D

 32 35  0  0  0  0  0  0  0  0999 V2000
  -52.9050   -0.2090  -14.1220 C   0  0  0  0  0  0  0  0  0  0  0  0
  -50.4370    0.0140  -14.4630 C   0  0  0  0  0  0  0  0  0  0  0  0
  -52.8400    0.6210  -18.9590 C   0  0  0  0  0  0  0  0  0  0  0  0
  -50.2630   -0.0370  -12.9320 C   0  0  0  0  0  0  0  0  0  0  0  0
  -52.0880    0.5140  -16.2410 C   0  0  0  0  0  0  0  0  0  0  0  0
  -51.4460   -0.3010  -17.1950 C   0  0  0  0  0  0  0  0  0  0  0  0
  -51.8120   -0.2420  -18.5380 C   0  0  0  0  0  0  0  0  0  0  0  0
  -53.4830    1.4170  -18.0100 C   0  0  0  0  0  0  0  0  0  0  0  0
  -53.1100    1.3700  -16.6750 C   0  0  0  0  0  0  0  0  0  0  0  0
  -51.3930   -0.7790  -12.3310 N   0  0  0  0  0  0  0  0  0  0  0  0
  -52.6870   -0.1300  -12.6050 C   0  0  0  0  0  0  0  0  0  0  0  0
  -51.2050   -1.0500  -10.8970 C   0  0  0  0  0  0  0  0  0  0  0  0
  -51.8030    0.4690  -14.8500 N   0  0  0  0  0  0  0  0  0  0  0  0
  -53.3190    0.7390  -20.2830 N   0  0  0  0  0  0  0  0  0  0  0  0
  -53.0060    0.0410  -21.4100 C   0  0  0  0  0  0  0  0  0  0  0  0
  -52.1740   -0.8470  -21.3460 O   0  0  0  0  0  0  0  0  0  0  0  0
  -53.7160    0.3280  -22.6990 C   0  0  0  0  0  0  0  0  0  0  0  0
  -53.3650   -0.3260  -23.9390 C   0  0  0  0  0  0  0  0  0  0  0  0
  -54.1050    0.0010  -25.1120 C   0  0  0  0  0  0  0  0  0  0  0  0
  -55.1410    0.8720  -25.0830 C   0  0  0  0  0  0  0  0  0  0  0  0
  -55.4720    1.5000  -23.9240 N   0  0  0  0  0  0  0  0  0  0  0  0
  -54.8160    1.2720  -22.7550 C   0  0  0  0  0  0  0  0  0  0  0  0
  -55.2030    1.9120  -21.7810 O   0  0  0  0  0  0  0  0  0  0  0  0
  -52.3010   -1.2250  -24.0500 N   0  0  0  0  0  0  0  0  0  0  0  0
  -52.3330   -2.5000  -24.6640 C   0  0  0  0  0  0  0  0  0  0  0  0
  -52.6550   -2.6320  -26.0290 C   0  0  0  0  0  0  0  0  0  0  0  0
  -52.6990   -3.8830  -26.6370 C   0  0  0  0  0  0  0  0  0  0  0  0
  -52.3640   -5.0200  -25.9010 C   0  0  0  0  0  0  0  0  0  0  0  0
  -52.0260   -4.9140  -24.5510 C   0  0  0  0  0  0  0  0  0  0  0  0
  -51.9740   -3.6580  -23.9260 C   0  0  0  0  0  0  0  0  0  0  0  0
  -51.6040   -3.5820  -22.6030 O   0  0  0  0  0  0  0  0  0  0  0  0
  -50.2090   -3.4370  -22.2690 C   0  0  0  0  0  0  0  0  0  0  0  0
 11  1  1  0
 13  1  1  0
  4  2  1  0
 13  2  1  0
  7  3  2  0
  8  3  1  0
 14  3  1  0
 10  4  1  0
  6  5  2  0
  9  5  1  0
 13  5  1  0
  7  6  1  0
  9  8  2  0
 11 10  1  0
 12 10  1  0
 15 14  1  0
 16 15  2  0
 17 15  1  0
 18 17  2  0
 22 17  1  0
 19 18  1  0
 24 18  1  0
 20 19  2  0
 21 20  1  0
 22 21  1  0
 23 22  2  0
 25 24  1  0
 26 25  2  0
 30 25  1  0
 27 26  1  0
 28 27  2  0
 29 28  1  0
 30 29  2  0
 31 30  1  0
 32 31  1  0
A    1
C4
A    2
C6
A    3
C11
A    4
C7
A    5
C8
A    6
C9
A    7
C10
A    8
C12
A    9
C13
A   10
N2
A   11
C3
A   12
C1
A   13
N5
A   14
N14
A   15
C15
A   16
O16
A   17
C17
A   18
C18
A   19
C19
A   20
C20
A   21
N21
A   22
C23
A   23
O24
A   24
N25
A   25
C26
A   26
C27
A   27
C28
A   28
C29
A   29
C30
A   30
C31
A   31
O32
A   32
C33
M  END
>  <Id>  (23) 
5EM8_5Q4_A_1101

>  <ChainId>  (23) 
A

>  <AsymId>  (23) 
B

>  <SeqNum>  (23) 
1101

>  <Name>  (23) 
4-[(2-methoxyphenyl)amino]-~{N}-[4-(4-methylpiperazin-1-yl)phenyl]-2-oxidanylidene-1~{H}-pyridine-3-carboxamide

>  <SystematicName>  (23) 
4-[(2-methoxyphenyl)amino]-~{N}-[4-(4-methylpiperazin-1-yl)phenyl]-2-oxidanylidene-1~{H}-pyridine-3-carboxamide

>  <Synonyms>  (23) 


>  <Type>  (23) 
NON-POLYMER

>  <Formula>  (23) 
C24 H27 N5 O3

>  <ObservedFormula>  (23) 
C24 N5 O3

>  <MolecularWeight>  (23) 
433.503

>  <ModifiedDate>  (23) 
2015-12-24

>  <Parent>  (23) 


>  <OneLetterCode>  (23) 


>  <SubcomponentList>  (23) 


>  <AmbiguousFlag>  (23) 
N

>  <InsertionCode>  (23) 


>  <InstanceId>  (23) 
5EM8_5Q4_A_1101

>  <ChemCompId>  (23) 
5Q4

>  <PdbId>  (23) 
5EM8

>  <ResidueNumber>  (23) 
1101

>  <InChI>  (23) 
InChI=1S/C24H27N5O3/c1-28-13-15-29(16-14-28)18-9-7-17(8-10-18)26-24(31)22-20(11-12-25-23(22)30)27-19-5-3-4-6-21(19)32-2/h3-12H,13-16H2,1-2H3,(H,26,31)(H2,25,27,30)

>  <InChIKey>  (23) 
DWKPGVACBGLMCU-UHFFFAOYSA-N

>  <SMILES>  (23) 
CN1CCN(CC1)c2ccc(cc2)NC(=O)C3=C(C=CNC3=O)Nc4ccccc4OC

>  <MissingHeavyAtoms>  (23) 
0

>  <Model>  (23) 
1

>  <AltIds>  (23) 


>  <pKI>  (23) 
5.96

>  <ChemblID>  (23) 
CHEMBL3780090

>  <standardized_canonical_smiles>  (23) 
COc1ccccc1Nc1cc[nH]c(=O)c1C(=O)Nc1ccc(N2CCN(C)CC2)cc1

$$$$
5EM7_5Q4_A_1102
     RDKit          3D

 32 35  0  0  0  0  0  0  0  0999 V2000
  -51.9450   -0.1330  -14.2280 C   0  0  0  0  0  0  0  0  0  0  0  0
  -49.5210    0.0920  -14.8220 C   0  0  0  0  0  0  0  0  0  0  0  0
  -52.2440    0.9430  -19.0190 C   0  0  0  0  0  0  0  0  0  0  0  0
  -49.1770   -0.1520  -13.3390 C   0  0  0  0  0  0  0  0  0  0  0  0
  -51.3170    0.7120  -16.3600 C   0  0  0  0  0  0  0  0  0  0  0  0
  -52.2790    1.6740  -16.7040 C   0  0  0  0  0  0  0  0  0  0  0  0
  -52.7340    1.7840  -18.0130 C   0  0  0  0  0  0  0  0  0  0  0  0
  -51.3040   -0.0400  -18.6770 C   0  0  0  0  0  0  0  0  0  0  0  0
  -50.8470   -0.1540  -17.3680 C   0  0  0  0  0  0  0  0  0  0  0  0
  -50.2410   -0.9440  -12.6840 N   0  0  0  0  0  0  0  0  0  0  0  0
  -51.5560   -0.2800  -12.7520 C   0  0  0  0  0  0  0  0  0  0  0  0
  -49.8910   -1.2660  -11.2920 C   0  0  0  0  0  0  0  0  0  0  0  0
  -50.9100    0.5970  -15.0080 N   0  0  0  0  0  0  0  0  0  0  0  0
  -52.7930    1.0990  -20.3150 N   0  0  0  0  0  0  0  0  0  0  0  0
  -52.4950    0.4600  -21.4810 C   0  0  0  0  0  0  0  0  0  0  0  0
  -51.6190   -0.3850  -21.4880 O   0  0  0  0  0  0  0  0  0  0  0  0
  -53.2570    0.7530  -22.7320 C   0  0  0  0  0  0  0  0  0  0  0  0
  -52.9250    0.1460  -23.9920 C   0  0  0  0  0  0  0  0  0  0  0  0
  -53.6940    0.4600  -25.1400 C   0  0  0  0  0  0  0  0  0  0  0  0
  -54.7480    1.3040  -25.0580 C   0  0  0  0  0  0  0  0  0  0  0  0
  -55.0750    1.8930  -23.8780 N   0  0  0  0  0  0  0  0  0  0  0  0
  -54.3860    1.6500  -22.7350 C   0  0  0  0  0  0  0  0  0  0  0  0
  -54.7590    2.2370  -21.7310 O   0  0  0  0  0  0  0  0  0  0  0  0
  -51.8460   -0.7060  -24.1590 N   0  0  0  0  0  0  0  0  0  0  0  0
  -51.9070   -2.0780  -24.4620 C   0  0  0  0  0  0  0  0  0  0  0  0
  -52.1060   -2.9990  -23.4270 C   0  0  0  0  0  0  0  0  0  0  0  0
  -52.1240   -4.3650  -23.6890 C   0  0  0  0  0  0  0  0  0  0  0  0
  -51.8990   -4.8260  -24.9820 C   0  0  0  0  0  0  0  0  0  0  0  0
  -51.6630   -3.9240  -26.0160 C   0  0  0  0  0  0  0  0  0  0  0  0
  -51.6690   -2.5430  -25.7720 C   0  0  0  0  0  0  0  0  0  0  0  0
  -51.4240   -1.6580  -26.7900 O   0  0  0  0  0  0  0  0  0  0  0  0
  -52.3560   -1.5390  -27.8760 C   0  0  0  0  0  0  0  0  0  0  0  0
 11  1  1  0
 13  1  1  0
  4  2  1  0
 13  2  1  0
  7  3  2  0
  8  3  1  0
 14  3  1  0
 10  4  1  0
  6  5  2  0
  9  5  1  0
 13  5  1  0
  7  6  1  0
  9  8  2  0
 11 10  1  0
 12 10  1  0
 15 14  1  0
 16 15  2  0
 17 15  1  0
 18 17  2  0
 22 17  1  0
 19 18  1  0
 24 18  1  0
 20 19  2  0
 21 20  1  0
 22 21  1  0
 23 22  2  0
 25 24  1  0
 26 25  2  0
 30 25  1  0
 27 26  1  0
 28 27  2  0
 29 28  1  0
 30 29  2  0
 31 30  1  0
 32 31  1  0
A    1
C4
A    2
C6
A    3
C11
A    4
C7
A    5
C8
A    6
C9
A    7
C10
A    8
C12
A    9
C13
A   10
N2
A   11
C3
A   12
C1
A   13
N5
A   14
N14
A   15
C15
A   16
O16
A   17
C17
A   18
C18
A   19
C19
A   20
C20
A   21
N21
A   22
C23
A   23
O24
A   24
N25
A   25
C26
A   26
C27
A   27
C28
A   28
C29
A   29
C30
A   30
C31
A   31
O32
A   32
C33
M  END
>  <Id>  (24) 
5EM7_5Q4_A_1102

>  <ChainId>  (24) 
A

>  <AsymId>  (24) 
C

>  <SeqNum>  (24) 
1102

>  <Name>  (24) 
4-[(2-methoxyphenyl)amino]-~{N}-[4-(4-methylpiperazin-1-yl)phenyl]-2-oxidanylidene-1~{H}-pyridine-3-carboxamide

>  <SystematicName>  (24) 
4-[(2-methoxyphenyl)amino]-~{N}-[4-(4-methylpiperazin-1-yl)phenyl]-2-oxidanylidene-1~{H}-pyridine-3-carboxamide

>  <Synonyms>  (24) 


>  <Type>  (24) 
NON-POLYMER

>  <Formula>  (24) 
C24 H27 N5 O3

>  <ObservedFormula>  (24) 
C24 N5 O3

>  <MolecularWeight>  (24) 
433.503

>  <ModifiedDate>  (24) 
2015-12-24

>  <Parent>  (24) 


>  <OneLetterCode>  (24) 


>  <SubcomponentList>  (24) 


>  <AmbiguousFlag>  (24) 
N

>  <InsertionCode>  (24) 


>  <InstanceId>  (24) 
5EM7_5Q4_A_1102

>  <ChemCompId>  (24) 
5Q4

>  <PdbId>  (24) 
5EM7

>  <ResidueNumber>  (24) 
1102

>  <InChI>  (24) 
InChI=1S/C24H27N5O3/c1-28-13-15-29(16-14-28)18-9-7-17(8-10-18)26-24(31)22-20(11-12-25-23(22)30)27-19-5-3-4-6-21(19)32-2/h3-12H,13-16H2,1-2H3,(H,26,31)(H2,25,27,30)

>  <InChIKey>  (24) 
DWKPGVACBGLMCU-UHFFFAOYSA-N

>  <SMILES>  (24) 
CN1CCN(CC1)c2ccc(cc2)NC(=O)C3=C(C=CNC3=O)Nc4ccccc4OC

>  <MissingHeavyAtoms>  (24) 
0

>  <Model>  (24) 
1

>  <AltIds>  (24) 


>  <pKI>  (24) 
5.96

>  <ChemblID>  (24) 
CHEMBL3780090

>  <standardized_canonical_smiles>  (24) 
COc1ccccc1Nc1cc[nH]c(=O)c1C(=O)Nc1ccc(N2CCN(C)CC2)cc1

$$$$
5EM6_5Q3_A_1102
     RDKit          3D

 31 34  0  0  0  0  0  0  0  0999 V2000
  -51.3240   -0.6650  -14.6890 C   0  0  0  0  0  0  0  0  0  0  0  0
  -49.0200    0.0670  -15.4110 C   0  0  0  0  0  0  0  0  0  0  0  0
  -52.1820    0.7450  -19.3360 C   0  0  0  0  0  0  0  0  0  0  0  0
  -48.5470   -0.1230  -13.9550 C   0  0  0  0  0  0  0  0  0  0  0  0
  -51.0250    0.4280  -16.7900 C   0  0  0  0  0  0  0  0  0  0  0  0
  -52.1670    1.2230  -16.9600 C   0  0  0  0  0  0  0  0  0  0  0  0
  -52.7360    1.3720  -18.2150 C   0  0  0  0  0  0  0  0  0  0  0  0
  -51.0420   -0.0540  -19.1790 C   0  0  0  0  0  0  0  0  0  0  0  0
  -50.4850   -0.2270  -17.9130 C   0  0  0  0  0  0  0  0  0  0  0  0
  -49.3990   -1.1170  -13.2580 N   0  0  0  0  0  0  0  0  0  0  0  0
  -50.8310   -0.7490  -13.2360 C   0  0  0  0  0  0  0  0  0  0  0  0
  -48.9220   -1.4040  -11.8970 C   0  0  0  0  0  0  0  0  0  0  0  0
  -50.4950    0.2780  -15.4880 N   0  0  0  0  0  0  0  0  0  0  0  0
  -52.8520    0.9630  -20.5610 N   0  0  0  0  0  0  0  0  0  0  0  0
  -52.8490    0.2430  -21.7180 C   0  0  0  0  0  0  0  0  0  0  0  0
  -52.1750   -0.7740  -21.8020 O   0  0  0  0  0  0  0  0  0  0  0  0
  -53.7430    0.6480  -22.8410 C   0  0  0  0  0  0  0  0  0  0  0  0
  -53.6610    0.0560  -24.1550 C   0  0  0  0  0  0  0  0  0  0  0  0
  -54.5880    0.4810  -25.1440 C   0  0  0  0  0  0  0  0  0  0  0  0
  -55.5420    1.4020  -24.8820 C   0  0  0  0  0  0  0  0  0  0  0  0
  -55.6210    1.9570  -23.6480 N   0  0  0  0  0  0  0  0  0  0  0  0
  -54.7850    1.6300  -22.6340 C   0  0  0  0  0  0  0  0  0  0  0  0
  -54.9620    2.2160  -21.5690 O   0  0  0  0  0  0  0  0  0  0  0  0
  -52.6980   -0.9070  -24.4660 N   0  0  0  0  0  0  0  0  0  0  0  0
  -52.4780   -1.6100  -25.6660 C   0  0  0  0  0  0  0  0  0  0  0  0
  -51.5140   -2.6400  -25.6690 C   0  0  0  0  0  0  0  0  0  0  0  0
  -51.2730   -3.3470  -26.8490 C   0  0  0  0  0  0  0  0  0  0  0  0
  -51.9450   -3.0290  -27.9540 N   0  0  0  0  0  0  0  0  0  0  0  0
  -52.8380   -2.0430  -27.9370 C   0  0  0  0  0  0  0  0  0  0  0  0
  -53.1030   -1.3430  -26.8280 N   0  0  0  0  0  0  0  0  0  0  0  0
  -53.5160   -1.7530  -29.1000 N   0  0  0  0  0  0  0  0  0  0  0  0
 11  1  1  0
 13  1  1  0
  4  2  1  0
 13  2  1  0
  7  3  2  0
  8  3  1  0
 14  3  1  0
 10  4  1  0
  6  5  2  0
  9  5  1  0
 13  5  1  0
  7  6  1  0
  9  8  2  0
 11 10  1  0
 12 10  1  0
 15 14  1  0
 16 15  2  0
 17 15  1  0
 18 17  2  0
 22 17  1  0
 19 18  1  0
 24 18  1  0
 20 19  2  0
 21 20  1  0
 22 21  1  0
 23 22  2  0
 25 24  1  0
 26 25  2  0
 30 25  1  0
 27 26  1  0
 28 27  2  0
 29 28  1  0
 30 29  2  0
 31 29  1  0
A    1
C4
A    2
C6
A    3
C11
A    4
C7
A    5
C8
A    6
C9
A    7
C10
A    8
C12
A    9
C13
A   10
N2
A   11
C3
A   12
C1
A   13
N5
A   14
N14
A   15
C15
A   16
O16
A   17
C17
A   18
C18
A   19
C19
A   20
C20
A   21
N21
A   22
C23
A   23
O24
A   24
N25
A   25
C26
A   26
C27
A   27
C28
A   28
N29
A   29
C30
A   30
N31
A   31
N32
M  END
>  <Id>  (25) 
5EM6_5Q3_A_1102

>  <ChainId>  (25) 
A

>  <AsymId>  (25) 
C

>  <SeqNum>  (25) 
1102

>  <Name>  (25) 
4-[(2-azanylpyrimidin-4-yl)amino]-~{N}-[4-(4-methylpiperazin-1-yl)phenyl]-2-oxidanylidene-1~{H}-pyridine-3-carboxamide

>  <SystematicName>  (25) 
4-[(2-azanylpyrimidin-4-yl)amino]-~{N}-[4-(4-methylpiperazin-1-yl)phenyl]-2-oxidanylidene-1~{H}-pyridine-3-carboxamide

>  <Synonyms>  (25) 


>  <Type>  (25) 
NON-POLYMER

>  <Formula>  (25) 
C21 H24 N8 O2

>  <ObservedFormula>  (25) 
C21 N8 O2

>  <MolecularWeight>  (25) 
420.468

>  <ModifiedDate>  (25) 
2015-12-24

>  <Parent>  (25) 


>  <OneLetterCode>  (25) 


>  <SubcomponentList>  (25) 


>  <AmbiguousFlag>  (25) 
N

>  <InsertionCode>  (25) 


>  <InstanceId>  (25) 
5EM6_5Q3_A_1102

>  <ChemCompId>  (25) 
5Q3

>  <PdbId>  (25) 
5EM6

>  <ResidueNumber>  (25) 
1102

>  <InChI>  (25) 
InChI=1S/C21H24N8O2/c1-28-10-12-29(13-11-28)15-4-2-14(3-5-15)25-20(31)18-16(6-8-23-19(18)30)26-17-7-9-24-21(22)27-17/h2-9H,10-13H2,1H3,(H,25,31)(H4,22,23,24,26,27,30)

>  <InChIKey>  (25) 
YDOSGCJDQXDSAQ-UHFFFAOYSA-N

>  <SMILES>  (25) 
CN1CCN(CC1)c2ccc(cc2)NC(=O)C3=C(C=CNC3=O)Nc4ccnc(n4)N

>  <MissingHeavyAtoms>  (25) 
0

>  <Model>  (25) 
1

>  <AltIds>  (25) 


>  <pKI>  (25) 
6.07

>  <ChemblID>  (25) 
CHEMBL3781993

>  <standardized_canonical_smiles>  (25) 
CN1CCN(c2ccc(NC(=O)c3c(Nc4ccnc(N)n4)cc[nH]c3=O)cc2)CC1

$$$$
5HCY_60D_A_1102
     RDKit          3D

 39 44  0  0  0  0  0  0  0  0999 V2000
  -55.4040    1.0340  -24.4270 C   0  0  0  0  0  0  0  0  0  0  0  0
  -51.4200   -0.3610  -19.2420 C   0  0  0  0  0  0  0  0  0  0  0  0
  -52.2210    0.6080  -18.7020 C   0  0  0  0  0  0  0  0  0  0  0  0
  -53.1070    1.0580  -19.7980 C   0  0  0  0  0  0  0  0  0  0  0  0
  -52.7220    0.3230  -20.9520 C   0  0  0  0  0  0  0  0  0  0  0  0
  -53.4010    0.5760  -22.1550 C   0  0  0  0  0  0  0  0  0  0  0  0
  -54.4510    1.5030  -22.1580 C   0  0  0  0  0  0  0  0  0  0  0  0
  -54.1310    2.0030  -19.9050 C   0  0  0  0  0  0  0  0  0  0  0  0
  -51.7140   -2.8220  -21.4320 C   0  0  0  0  0  0  0  0  0  0  0  0
  -49.5200   -1.5660  -21.3380 C   0  0  0  0  0  0  0  0  0  0  0  0
  -51.0370   -1.4500  -21.5160 C   0  0  0  0  0  0  0  0  0  0  0  0
  -51.6890   -0.5140  -20.5780 N   0  0  0  0  0  0  0  0  0  0  0  0
  -54.7530    2.1950  -21.0590 N   0  0  0  0  0  0  0  0  0  0  0  0
  -55.1990    1.8180  -23.3040 N   0  0  0  0  0  0  0  0  0  0  0  0
  -56.6300    1.1430  -25.1010 C   0  0  0  0  0  0  0  0  0  0  0  0
  -56.8150    0.3760  -26.2470 C   0  0  0  0  0  0  0  0  0  0  0  0
  -55.8400   -0.4380  -26.6540 N   0  0  0  0  0  0  0  0  0  0  0  0
  -54.6730   -0.5160  -26.0100 C   0  0  0  0  0  0  0  0  0  0  0  0
  -54.4530    0.2190  -24.9160 N   0  0  0  0  0  0  0  0  0  0  0  0
  -53.6350   -1.4670  -26.4730 C   0  0  0  0  0  0  0  0  0  0  0  0
  -53.4880   -2.0310  -27.7580 C   0  0  0  0  0  0  0  0  0  0  0  0
  -52.4710   -2.8490  -27.7270 N   0  0  0  0  0  0  0  0  0  0  0  0
  -51.9290   -2.8520  -26.4320 N   0  0  0  0  0  0  0  0  0  0  0  0
  -52.6670   -2.0110  -25.6830 C   0  0  0  0  0  0  0  0  0  0  0  0
  -50.6590   -3.7890  -25.8720 S   0  0  0  0  0  0  0  0  0  0  0  0
  -49.8760   -4.0330  -27.0380 O   0  0  0  0  0  0  0  0  0  0  0  0
  -50.1330   -3.0770  -24.7500 O   0  0  0  0  0  0  0  0  0  0  0  0
  -51.4560   -5.3360  -25.3260 C   0  0  0  0  0  0  0  0  0  0  0  0
  -50.5490   -6.5070  -24.9380 C   0  0  0  0  0  0  0  0  0  0  0  0
  -51.3340   -5.7570  -23.8620 C   0  0  0  0  0  0  0  0  0  0  0  0
  -52.2560    1.0830  -17.3040 C   0  0  0  0  0  0  0  0  0  0  0  0
  -52.8540    2.1130  -17.0150 O   0  0  0  0  0  0  0  0  0  0  0  0
  -51.6070    0.3820  -16.3460 N   0  0  0  0  0  0  0  0  0  0  0  0
  -51.6430    0.7840  -14.9400 C   0  0  0  0  0  0  0  0  0  0  0  0
  -52.7490   -0.0720  -14.2860 C   0  0  0  0  0  0  0  0  0  0  0  0
  -52.7930    0.1860  -12.7750 C   0  0  0  0  0  0  0  0  0  0  0  0
  -51.4930   -0.1200  -12.2500 O   0  0  0  0  0  0  0  0  0  0  0  0
  -50.4070    0.6810  -12.7640 C   0  0  0  0  0  0  0  0  0  0  0  0
  -50.2800    0.5120  -14.2890 C   0  0  0  0  0  0  0  0  0  0  0  0
 14  1  1  0
 15  1  2  0
 19  1  1  0
  3  2  2  0
 12  2  1  0
  4  3  1  0
 31  3  1  0
  5  4  2  0
  8  4  1  0
  6  5  1  0
 12  5  1  0
  7  6  2  0
 13  7  1  0
 14  7  1  0
 13  8  2  0
 11  9  1  0
 11 10  1  0
 12 11  1  0
 16 15  1  0
 17 16  2  0
 18 17  1  0
 19 18  2  0
 20 18  1  0
 21 20  1  0
 24 20  2  0
 22 21  2  0
 23 22  1  0
 24 23  1  0
 25 23  1  0
 26 25  2  0
 27 25  2  0
 28 25  1  0
 29 28  1  0
 30 28  1  0
 30 29  1  0
 32 31  2  0
 33 31  1  0
 34 33  1  0
 35 34  1  0
 39 34  1  0
 36 35  1  0
 37 36  1  0
 38 37  1  0
 39 38  1  0
A    1
C14
A    2
C5
A    3
C6
A    4
C7
A    5
C8
A    6
C9
A    7
C10
A    8
C12
A    9
C3
A   10
C1
A   11
C2
A   12
N4
A   13
N11
A   14
N13
A   15
C15
A   16
C16
A   17
N17
A   18
C18
A   19
N19
A   20
C20
A   21
C21
A   22
N22
A   23
N23
A   24
C24
A   25
S25
A   26
O26
A   27
O27
A   28
C28
A   29
C29
A   30
C30
A   31
C31
A   32
O32
A   33
N33
A   34
C34
A   35
C35
A   36
C36
A   37
O37
A   38
C38
A   39
C39
M  END
>  <Id>  (26) 
5HCY_60D_A_1102

>  <ChainId>  (26) 
A

>  <AsymId>  (26) 
C

>  <SeqNum>  (26) 
1102

>  <Name>  (26) 
6-[[2-(1-cyclopropylsulfonylpyrazol-4-yl)pyrimidin-4-yl]amino]-~{N}-(oxan-4-yl)-1-propan-2-yl-pyrrolo[3,2-c]pyridine-3-carboxamide

>  <SystematicName>  (26) 
6-[[2-(1-cyclopropylsulfonylpyrazol-4-yl)pyrimidin-4-yl]amino]-~{N}-(oxan-4-yl)-1-propan-2-yl-pyrrolo[3,2-c]pyridine-3-carboxamide

>  <Synonyms>  (26) 


>  <Type>  (26) 
NON-POLYMER

>  <Formula>  (26) 
C26 H30 N8 O4 S

>  <ObservedFormula>  (26) 
C26 S N8 O4

>  <MolecularWeight>  (26) 
550.633

>  <ModifiedDate>  (26) 
2016-09-02

>  <Parent>  (26) 


>  <OneLetterCode>  (26) 


>  <SubcomponentList>  (26) 


>  <AmbiguousFlag>  (26) 
N

>  <InsertionCode>  (26) 


>  <InstanceId>  (26) 
5HCY_60D_A_1102

>  <ChemCompId>  (26) 
60D

>  <PdbId>  (26) 
5HCY

>  <ResidueNumber>  (26) 
1102

>  <InChI>  (26) 
InChI=1S/C26H30N8O4S/c1-16(2)33-15-21(26(35)30-18-6-9-38-10-7-18)20-13-28-24(11-22(20)33)31-23-5-8-27-25(32-23)17-12-29-34(14-17)39(36,37)19-3-4-19/h5,8,11-16,18-19H,3-4,6-7,9-10H2,1-2H3,(H,30,35)(H,27,28,31,32)

>  <InChIKey>  (26) 
DJHWPKSBDIEQGY-UHFFFAOYSA-N

>  <SMILES>  (26) 
CC(C)n1cc(c2c1cc(nc2)Nc3ccnc(n3)c4cnn(c4)S(=O)(=O)C5CC5)C(=O)NC6CCOCC6

>  <MissingHeavyAtoms>  (26) 
0

>  <Model>  (26) 
1

>  <AltIds>  (26) 


>  <pKI>  (26) 
8.92

>  <ChemblID>  (26) 
-

>  <standardized_canonical_smiles>  (26) 
CC(C)n1cc(C(=O)NC2CCOCC2)c2cnc(Nc3ccnc(-c4cnn(S(=O)(=O)C5CC5)c4)n3)cc21

$$$$
5UGB_8BM_A_9001
     RDKit          3D

 35 39  0  0  0  0  0  0  0  0999 V2000
    4.4040  -50.8020  -20.3420 C   0  0  0  0  0  0  0  0  0  0  0  0
    2.9740  -50.8360  -19.8530 C   0  0  0  0  0  0  0  0  0  0  0  0
    2.1920  -50.0450  -20.9230 C   0  0  0  0  0  0  0  0  0  0  0  0
    3.1810  -48.9740  -21.3360 C   0  0  0  0  0  0  0  0  0  0  0  0
    0.8920  -51.8940  -22.0200 C   0  0  0  0  0  0  0  0  0  0  0  0
   -1.5350  -53.3390  -16.9540 C   0  0  0  0  0  0  0  0  0  0  0  0
   -0.3280  -51.7770  -15.4540 C   0  0  0  0  0  0  0  0  0  0  0  0
   -0.5860  -49.9570  -13.8780 C   0  0  0  0  0  0  0  0  0  0  0  0
   -0.5040  -49.7120  -12.3630 C   0  0  0  0  0  0  0  0  0  0  0  0
    1.0780  -49.6710  -10.4220 C   0  0  0  0  0  0  0  0  0  0  0  0
    1.3520  -51.4820  -13.7460 C   0  0  0  0  0  0  0  0  0  0  0  0
    6.9730  -49.3430  -20.7720 C   0  0  0  0  0  0  0  0  0  0  0  0
    5.6470  -48.7280  -21.1930 C   0  0  0  0  0  0  0  0  0  0  0  0
    5.6220  -47.6030  -21.7150 O   0  0  0  0  0  0  0  0  0  0  0  0
    4.4960  -49.4830  -20.9610 N   0  0  0  0  0  0  0  0  0  0  0  0
    1.8350  -50.8560  -22.1060 N   0  0  0  0  0  0  0  0  0  0  0  0
    0.3130  -52.1380  -20.8140 N   0  0  0  0  0  0  0  0  0  0  0  0
   -0.6070  -53.1200  -20.6040 C   0  0  0  0  0  0  0  0  0  0  0  0
   -1.1910  -53.3460  -19.3530 N   0  0  0  0  0  0  0  0  0  0  0  0
   -0.8820  -52.7940  -18.0910 C   0  0  0  0  0  0  0  0  0  0  0  0
   -1.2620  -52.8390  -15.6620 C   0  0  0  0  0  0  0  0  0  0  0  0
    0.3240  -51.2270  -16.6030 C   0  0  0  0  0  0  0  0  0  0  0  0
    0.0480  -51.7270  -17.8800 C   0  0  0  0  0  0  0  0  0  0  0  0
   -0.0860  -51.3290  -14.1340 N   0  0  0  0  0  0  0  0  0  0  0  0
    0.9480  -49.8950  -11.8990 N   0  0  0  0  0  0  0  0  0  0  0  0
    1.4880  -51.2760  -12.2460 C   0  0  0  0  0  0  0  0  0  0  0  0
   -0.9600  -53.9110  -21.7100 C   0  0  0  0  0  0  0  0  0  0  0  0
   -1.8270  -54.9470  -21.8220 N   0  0  0  0  0  0  0  0  0  0  0  0
   -1.7570  -55.2930  -23.0900 C   0  0  0  0  0  0  0  0  0  0  0  0
   -0.8820  -54.5290  -23.8190 N   0  0  0  0  0  0  0  0  0  0  0  0
   -0.6680  -54.7400  -25.2630 C   0  0  0  0  0  0  0  0  0  0  0  0
    0.3420  -55.8270  -25.5630 C   0  0  0  0  0  0  0  0  0  0  0  0
   -0.2720  -53.4720  -26.0440 C   0  0  0  0  0  0  0  0  0  0  0  0
   -0.3350  -53.6110  -22.9290 C   0  0  0  0  0  0  0  0  0  0  0  0
    0.5910  -52.6230  -23.1440 N   0  0  0  0  0  0  0  0  0  0  0  0
  2  1  1  0
 15  1  1  0
  3  2  1  0
  4  3  1  0
 16  3  1  0
 15  4  1  0
 16  5  1  0
 17  5  2  0
 35  5  1  0
 20  6  2  0
 21  6  1  0
 21  7  2  0
 22  7  1  0
 24  7  1  0
  9  8  1  0
 24  8  1  0
 25  9  1  0
 25 10  1  0
 24 11  1  0
 26 11  1  0
 13 12  1  0
 14 13  2  0
 15 13  1  0
 18 17  1  0
 19 18  1  0
 27 18  2  0
 20 19  1  0
 23 20  1  0
 23 22  2  0
 26 25  1  0
 28 27  1  0
 34 27  1  0
 29 28  2  0
 30 29  1  0
 31 30  1  0
 34 30  1  0
 32 31  1  0
 33 31  1  0
 35 34  2  0
A    1
C5
A    2
C6
A    3
C7
A    4
C8
A    5
C10
A    6
C15
A    7
C17
A    8
C21
A    9
C22
A   10
C24
A   11
C26
A   12
C1
A   13
C2
A   14
O3
A   15
N4
A   16
N9
A   17
N11
A   18
C12
A   19
N13
A   20
C14
A   21
C16
A   22
C18
A   23
C19
A   24
N20
A   25
N23
A   26
C25
A   27
C27
A   28
N28
A   29
C29
A   30
N30
A   31
C31
A   32
C32
A   33
C33
A   34
C34
A   35
N35
M  END
>  <Id>  (27) 
5UGB_8BM_A_9001

>  <ChainId>  (27) 
A

>  <AsymId>  (27) 
B

>  <SeqNum>  (27) 
9001

>  <Name>  (27) 
4-(4-{[2-{[(3S)-1-acetylpyrrolidin-3-yl]amino}-9-(propan-2-yl)-9H-purin-6-yl]amino}phenyl)-1-methylpiperazin-1-ium

>  <SystematicName>  (27) 
1-[(3~{S})-3-[[6-[[4-(4-methylpiperazin-1-yl)phenyl]amino]-9-propan-2-yl-purin-2-yl]amino]pyrrolidin-1-yl]ethanone

>  <Synonyms>  (27) 
1-[(3S)-3-{[6-{[4-(4-methylpiperazin-1-yl)phenyl]amino}-9-(propan-2-yl)-9H-purin-2-yl]amino}pyrrolidin-1-yl]ethan-1-one

>  <Type>  (27) 
NON-POLYMER

>  <Formula>  (27) 
C25 H35 N9 O

>  <ObservedFormula>  (27) 
C25 N9 O

>  <MolecularWeight>  (27) 
477.605

>  <ModifiedDate>  (27) 
2017-03-17

>  <Parent>  (27) 


>  <OneLetterCode>  (27) 


>  <SubcomponentList>  (27) 


>  <AmbiguousFlag>  (27) 
N

>  <InsertionCode>  (27) 


>  <InstanceId>  (27) 
5UGB_8BM_A_9001

>  <ChemCompId>  (27) 
8BM

>  <PdbId>  (27) 
5UGB

>  <ResidueNumber>  (27) 
9001

>  <InChI>  (27) 
InChI=1S/C25H35N9O/c1-17(2)34-16-26-22-23(27-19-5-7-21(8-6-19)32-13-11-31(4)12-14-32)29-25(30-24(22)34)28-20-9-10-33(15-20)18(3)35/h5-8,16-17,20H,9-15H2,1-4H3,(H2,27,28,29,30)/t20-/m0/s1

>  <InChIKey>  (27) 
ACTNABQUCQIOKX-FQEVSTJZSA-N

>  <SMILES>  (27) 
CC(C)n1cnc2c1nc(nc2Nc3ccc(cc3)N4CCN(CC4)C)N[C@H]5CCN(C5)C(=O)C

>  <MissingHeavyAtoms>  (27) 
0

>  <Model>  (27) 
1

>  <AltIds>  (27) 


>  <pKI>  (27) 
6.79

>  <ChemblID>  (27) 
-

>  <standardized_canonical_smiles>  (27) 
CC(=O)N1CC[C@H](Nc2nc(Nc3ccc(N4CCN(C)CC4)cc3)c3ncn(C(C)C)c3n2)C1

$$$$
5UGA_8BM_A_9001
     RDKit          3D

 35 39  0  0  0  0  0  0  0  0999 V2000
   13.9160   -6.8930  -29.8980 C   0  0  0  0  0  0  0  0  0  0  0  0
   14.3600   -5.7970  -30.8600 C   0  0  0  0  0  0  0  0  0  0  0  0
   14.0430   -6.3550  -32.2590 C   0  0  0  0  0  0  0  0  0  0  0  0
   14.2820   -7.8550  -32.0810 C   0  0  0  0  0  0  0  0  0  0  0  0
   12.0700   -4.9410  -32.8810 C   0  0  0  0  0  0  0  0  0  0  0  0
   15.3630   -2.1440  -32.7280 C   0  0  0  0  0  0  0  0  0  0  0  0
   17.2270   -0.4790  -32.6100 C   0  0  0  0  0  0  0  0  0  0  0  0
   19.0830    1.2010  -32.4160 C   0  0  0  0  0  0  0  0  0  0  0  0
   20.3330    1.2970  -31.5350 C   0  0  0  0  0  0  0  0  0  0  0  0
   22.6390    0.3890  -31.2490 C   0  0  0  0  0  0  0  0  0  0  0  0
   19.5790   -1.0790  -33.0450 C   0  0  0  0  0  0  0  0  0  0  0  0
   13.5250  -10.5560  -31.0190 C   0  0  0  0  0  0  0  0  0  0  0  0
   13.5210   -9.3450  -30.1140 C   0  0  0  0  0  0  0  0  0  0  0  0
   13.2030   -9.4680  -28.9230 O   0  0  0  0  0  0  0  0  0  0  0  0
   13.8870   -8.1220  -30.6870 N   0  0  0  0  0  0  0  0  0  0  0  0
   12.6430   -6.1870  -32.6430 N   0  0  0  0  0  0  0  0  0  0  0  0
   12.8360   -3.8020  -32.9420 N   0  0  0  0  0  0  0  0  0  0  0  0
   12.2760   -2.5560  -33.1770 C   0  0  0  0  0  0  0  0  0  0  0  0
   13.0300   -1.3790  -33.2350 N   0  0  0  0  0  0  0  0  0  0  0  0
   14.4100   -1.1390  -33.0530 C   0  0  0  0  0  0  0  0  0  0  0  0
   16.7270   -1.8210  -32.5120 C   0  0  0  0  0  0  0  0  0  0  0  0
   16.2520    0.5220  -32.9540 C   0  0  0  0  0  0  0  0  0  0  0  0
   14.8810    0.2000  -33.1700 C   0  0  0  0  0  0  0  0  0  0  0  0
   18.5960   -0.1960  -32.3470 N   0  0  0  0  0  0  0  0  0  0  0  0
   21.3910    0.3470  -32.0810 N   0  0  0  0  0  0  0  0  0  0  0  0
   20.8600   -1.0890  -32.1890 C   0  0  0  0  0  0  0  0  0  0  0  0
   10.8690   -2.5100  -33.3470 C   0  0  0  0  0  0  0  0  0  0  0  0
    9.9950   -1.4820  -33.5800 N   0  0  0  0  0  0  0  0  0  0  0  0
    8.8070   -2.0600  -33.6310 C   0  0  0  0  0  0  0  0  0  0  0  0
    8.8710   -3.4250  -33.4420 N   0  0  0  0  0  0  0  0  0  0  0  0
    7.7920   -4.4320  -33.4210 C   0  0  0  0  0  0  0  0  0  0  0  0
    7.7400   -5.2280  -34.7330 C   0  0  0  0  0  0  0  0  0  0  0  0
    6.3960   -3.8390  -33.1550 C   0  0  0  0  0  0  0  0  0  0  0  0
   10.1900   -3.7240  -33.2600 C   0  0  0  0  0  0  0  0  0  0  0  0
   10.7200   -4.9480  -33.0370 N   0  0  0  0  0  0  0  0  0  0  0  0
  2  1  1  0
 15  1  1  0
  3  2  1  0
  4  3  1  0
 16  3  1  0
 15  4  1  0
 16  5  1  0
 17  5  2  0
 35  5  1  0
 20  6  2  0
 21  6  1  0
 21  7  2  0
 22  7  1  0
 24  7  1  0
  9  8  1  0
 24  8  1  0
 25  9  1  0
 25 10  1  0
 24 11  1  0
 26 11  1  0
 13 12  1  0
 14 13  2  0
 15 13  1  0
 18 17  1  0
 19 18  1  0
 27 18  2  0
 20 19  1  0
 23 20  1  0
 23 22  2  0
 26 25  1  0
 28 27  1  0
 34 27  1  0
 29 28  2  0
 30 29  1  0
 31 30  1  0
 34 30  1  0
 32 31  1  0
 33 31  1  0
 35 34  2  0
A    1
C5
A    2
C6
A    3
C7
A    4
C8
A    5
C10
A    6
C15
A    7
C17
A    8
C21
A    9
C22
A   10
C24
A   11
C26
A   12
C1
A   13
C2
A   14
O3
A   15
N4
A   16
N9
A   17
N11
A   18
C12
A   19
N13
A   20
C14
A   21
C16
A   22
C18
A   23
C19
A   24
N20
A   25
N23
A   26
C25
A   27
C27
A   28
N28
A   29
C29
A   30
N30
A   31
C31
A   32
C32
A   33
C33
A   34
C34
A   35
N35
M  END
>  <Id>  (28) 
5UGA_8BM_A_9001

>  <ChainId>  (28) 
A

>  <AsymId>  (28) 
B

>  <SeqNum>  (28) 
9001

>  <Name>  (28) 
4-(4-{[2-{[(3S)-1-acetylpyrrolidin-3-yl]amino}-9-(propan-2-yl)-9H-purin-6-yl]amino}phenyl)-1-methylpiperazin-1-ium

>  <SystematicName>  (28) 
1-[(3~{S})-3-[[6-[[4-(4-methylpiperazin-1-yl)phenyl]amino]-9-propan-2-yl-purin-2-yl]amino]pyrrolidin-1-yl]ethanone

>  <Synonyms>  (28) 
1-[(3S)-3-{[6-{[4-(4-methylpiperazin-1-yl)phenyl]amino}-9-(propan-2-yl)-9H-purin-2-yl]amino}pyrrolidin-1-yl]ethan-1-one

>  <Type>  (28) 
NON-POLYMER

>  <Formula>  (28) 
C25 H35 N9 O

>  <ObservedFormula>  (28) 
C25 N9 O

>  <MolecularWeight>  (28) 
477.605

>  <ModifiedDate>  (28) 
2017-03-17

>  <Parent>  (28) 


>  <OneLetterCode>  (28) 


>  <SubcomponentList>  (28) 


>  <AmbiguousFlag>  (28) 
N

>  <InsertionCode>  (28) 


>  <InstanceId>  (28) 
5UGA_8BM_A_9001

>  <ChemCompId>  (28) 
8BM

>  <PdbId>  (28) 
5UGA

>  <ResidueNumber>  (28) 
9001

>  <InChI>  (28) 
InChI=1S/C25H35N9O/c1-17(2)34-16-26-22-23(27-19-5-7-21(8-6-19)32-13-11-31(4)12-14-32)29-25(30-24(22)34)28-20-9-10-33(15-20)18(3)35/h5-8,16-17,20H,9-15H2,1-4H3,(H2,27,28,29,30)/t20-/m0/s1

>  <InChIKey>  (28) 
ACTNABQUCQIOKX-FQEVSTJZSA-N

>  <SMILES>  (28) 
CC(C)n1cnc2c1nc(nc2Nc3ccc(cc3)N4CCN(CC4)C)N[C@H]5CCN(C5)C(=O)C

>  <MissingHeavyAtoms>  (28) 
0

>  <Model>  (28) 
1

>  <AltIds>  (28) 


>  <pKI>  (28) 
6.79

>  <ChemblID>  (28) 
-

>  <standardized_canonical_smiles>  (28) 
CC(=O)N1CC[C@H](Nc2nc(Nc3ccc(N4CCN(C)CC4)cc3)c3ncn(C(C)C)c3n2)C1

$$$$
4RJ5_3QY_A_1101
     RDKit          3D

 29 33  0  0  0  0  0  0  0  0999 V2000
  -47.9510   -1.1370  -21.2360 C   0  0  0  0  0  0  0  0  0  0  0  0
  -48.7770   -0.1420  -20.4040 C   0  0  0  0  0  0  0  0  0  0  0  0
  -51.4830    1.0710  -16.9700 C   0  0  0  0  0  0  0  0  0  0  0  0
  -48.7170   -1.5920  -18.4100 C   0  0  0  0  0  0  0  0  0  0  0  0
  -47.8890   -2.6660  -19.1390 C   0  0  0  0  0  0  0  0  0  0  0  0
  -50.5690   -0.0520  -18.8060 C   0  0  0  0  0  0  0  0  0  0  0  0
  -52.5350    1.5170  -17.7600 C   0  0  0  0  0  0  0  0  0  0  0  0
  -52.5670    1.1400  -19.1160 C   0  0  0  0  0  0  0  0  0  0  0  0
  -47.0990   -2.0380  -20.3120 C   0  0  0  0  0  0  0  0  0  0  0  0
  -46.7790   -4.0130  -21.8100 C   0  0  0  0  0  0  0  0  0  0  0  0
  -46.2230   -2.9500  -21.0090 O   0  0  0  0  0  0  0  0  0  0  0  0
  -49.5690   -0.8510  -19.3720 N   0  0  0  0  0  0  0  0  0  0  0  0
  -50.5310    0.3070  -17.5140 N   0  0  0  0  0  0  0  0  0  0  0  0
  -51.5820    0.3540  -19.5810 N   0  0  0  0  0  0  0  0  0  0  0  0
  -53.6270    1.5950  -19.9140 N   0  0  0  0  0  0  0  0  0  0  0  0
  -53.8360    1.3780  -21.2870 C   0  0  0  0  0  0  0  0  0  0  0  0
  -53.0310    0.5140  -22.0230 C   0  0  0  0  0  0  0  0  0  0  0  0
  -53.2850    0.3250  -23.3800 C   0  0  0  0  0  0  0  0  0  0  0  0
  -54.3760    1.0090  -23.9780 C   0  0  0  0  0  0  0  0  0  0  0  0
  -54.3810    0.5940  -25.3850 C   0  0  0  0  0  0  0  0  0  0  0  0
  -53.3360   -0.2640  -25.5520 C   0  0  0  0  0  0  0  0  0  0  0  0
  -52.6780   -0.4220  -24.3560 N   0  0  0  0  0  0  0  0  0  0  0  0
  -52.8880   -0.9270  -26.8000 C   0  0  0  0  0  0  0  0  0  0  0  0
  -51.7580   -0.6160  -27.5020 C   0  0  0  0  0  0  0  0  0  0  0  0
  -51.6940   -1.4450  -28.5630 N   0  0  0  0  0  0  0  0  0  0  0  0
  -52.8060   -2.2920  -28.5290 N   0  0  0  0  0  0  0  0  0  0  0  0
  -53.5120   -1.9990  -27.4700 C   0  0  0  0  0  0  0  0  0  0  0  0
  -55.1650    1.8390  -23.1660 C   0  0  0  0  0  0  0  0  0  0  0  0
  -54.8600    2.0030  -21.8810 N   0  0  0  0  0  0  0  0  0  0  0  0
  2  1  1  0
  9  1  1  0
 12  2  1  0
  7  3  2  0
 13  3  1  0
  5  4  1  0
 12  4  1  0
  9  5  1  0
 12  6  1  0
 13  6  2  0
 14  6  1  0
  8  7  1  0
 14  8  2  0
 15  8  1  0
 11  9  1  0
 11 10  1  0
 16 15  1  0
 17 16  2  0
 29 16  1  0
 18 17  1  0
 19 18  2  0
 22 18  1  0
 20 19  1  0
 28 19  1  0
 21 20  2  0
 22 21  1  0
 23 21  1  0
 24 23  2  0
 27 23  1  0
 25 24  1  0
 26 25  1  0
 27 26  2  0
 29 28  2  0
A    1
C4
A    2
C5
A    3
C11
A    4
C7
A    5
C8
A    6
C9
A    7
C12
A    8
C13
A    9
C3
A   10
C1
A   11
O2
A   12
N6
A   13
N10
A   14
N14
A   15
N15
A   16
C16
A   17
C17
A   18
C18
A   19
C19
A   20
C20
A   21
C21
A   22
N22
A   23
C24
A   24
C25
A   25
N26
A   26
N28
A   27
C29
A   28
C30
A   29
N31
M  END
>  <Id>  (29) 
4RJ5_3QY_A_1101

>  <ChainId>  (29) 
A

>  <AsymId>  (29) 
B

>  <SeqNum>  (29) 
1101

>  <Name>  (29) 
N-[2-(4-methoxypiperidin-1-yl)pyrimidin-4-yl]-2-(1H-pyrazol-4-yl)-1H-pyrrolo[3,2-c]pyridin-6-amine

>  <SystematicName>  (29) 
N-[2-(4-methoxypiperidin-1-yl)pyrimidin-4-yl]-2-(1H-pyrazol-4-yl)-1H-pyrrolo[3,2-c]pyridin-6-amine

>  <Synonyms>  (29) 


>  <Type>  (29) 
NON-POLYMER

>  <Formula>  (29) 
C20 H22 N8 O

>  <ObservedFormula>  (29) 
C20 N8 O

>  <MolecularWeight>  (29) 
390.442

>  <ModifiedDate>  (29) 
2014-11-21

>  <Parent>  (29) 


>  <OneLetterCode>  (29) 


>  <SubcomponentList>  (29) 


>  <AmbiguousFlag>  (29) 
N

>  <InsertionCode>  (29) 


>  <InstanceId>  (29) 
4RJ5_3QY_A_1101

>  <ChemCompId>  (29) 
3QY

>  <PdbId>  (29) 
4RJ5

>  <ResidueNumber>  (29) 
1101

>  <InChI>  (29) 
InChI=1S/C20H22N8O/c1-29-15-3-6-28(7-4-15)20-21-5-2-18(27-20)26-19-9-17-13(10-22-19)8-16(25-17)14-11-23-24-12-14/h2,5,8-12,15,25H,3-4,6-7H2,1H3,(H,23,24)(H,21,22,26,27)

>  <InChIKey>  (29) 
ZYQLGVMUVCWJRA-UHFFFAOYSA-N

>  <SMILES>  (29) 
COC1CCN(CC1)c2nccc(n2)Nc3cc4c(cc([nH]4)c5c[nH]nc5)cn3

>  <MissingHeavyAtoms>  (29) 
0

>  <Model>  (29) 
1

>  <AltIds>  (29) 


>  <pKI>  (29) 
7.06

>  <ChemblID>  (29) 
-

>  <standardized_canonical_smiles>  (29) 
COC1CCN(c2nccc(Nc3cc4[nH]c(-c5cn[nH]c5)cc4cn3)n2)CC1

$$$$
5C8N_4YX_A_1102
     RDKit          3D

 31 34  0  0  0  0  0  0  0  0999 V2000
  -52.7300    1.3400  -19.7870 C   0  0  0  0  0  0  0  0  0  0  0  0
  -53.7190    2.2970  -19.9760 C   0  0  0  0  0  0  0  0  0  0  0  0
  -50.7840   -1.2780  -21.3360 C   0  0  0  0  0  0  0  0  0  0  0  0
  -53.9970    1.6700  -22.2130 C   0  0  0  0  0  0  0  0  0  0  0  0
  -53.0060    0.7000  -22.1340 C   0  0  0  0  0  0  0  0  0  0  0  0
  -52.3660    0.5340  -20.8950 C   0  0  0  0  0  0  0  0  0  0  0  0
  -49.3450   -0.9350  -21.6970 C   0  0  0  0  0  0  0  0  0  0  0  0
  -51.0860   -2.7420  -21.0570 C   0  0  0  0  0  0  0  0  0  0  0  0
  -51.9620    0.9610  -18.7290 N   0  0  0  0  0  0  0  0  0  0  0  0
  -50.2140   -0.6470  -18.1260 C   0  0  0  0  0  0  0  0  0  0  0  0
  -51.1810   -0.0150  -19.0960 C   0  0  0  0  0  0  0  0  0  0  0  0
  -54.3050    2.4290  -21.1600 N   0  0  0  0  0  0  0  0  0  0  0  0
  -51.3890   -0.3070  -20.4310 N   0  0  0  0  0  0  0  0  0  0  0  0
  -54.6960    1.9350  -23.3780 N   0  0  0  0  0  0  0  0  0  0  0  0
  -54.7860    1.1170  -24.4820 C   0  0  0  0  0  0  0  0  0  0  0  0
  -55.9270    1.2060  -25.2850 C   0  0  0  0  0  0  0  0  0  0  0  0
  -55.9870    0.3840  -26.4020 C   0  0  0  0  0  0  0  0  0  0  0  0
  -54.9710   -0.4310  -26.6580 N   0  0  0  0  0  0  0  0  0  0  0  0
  -53.8910   -0.4730  -25.8910 C   0  0  0  0  0  0  0  0  0  0  0  0
  -53.8000    0.2860  -24.8160 N   0  0  0  0  0  0  0  0  0  0  0  0
  -52.8520   -1.3450  -26.1790 N   0  0  0  0  0  0  0  0  0  0  0  0
  -52.5660   -1.6570  -27.5970 C   0  0  0  0  0  0  0  0  0  0  0  0
  -51.9310   -3.0490  -27.6180 C   0  0  0  0  0  0  0  0  0  0  0  0
  -50.6760   -3.1080  -26.7170 C   0  0  0  0  0  0  0  0  0  0  0  0
  -50.9320   -2.5400  -25.3000 C   0  0  0  0  0  0  0  0  0  0  0  0
  -51.6460   -1.1690  -25.3540 C   0  0  0  0  0  0  0  0  0  0  0  0
  -50.2630   -4.5790  -26.5570 C   0  0  0  0  0  0  0  0  0  0  0  0
  -49.7130   -5.1270  -27.8850 C   0  0  0  0  0  0  0  0  0  0  0  0
  -49.1760   -6.4810  -27.7120 N   0  0  0  0  0  0  0  0  0  0  0  0
  -49.6490   -2.3510  -27.3940 O   0  0  0  0  0  0  0  0  0  0  0  0
  -48.4320   -2.0840  -26.6810 C   0  0  0  0  0  0  0  0  0  0  0  0
  2  1  2  0
  6  1  1  0
  9  1  1  0
 12  2  1  0
  7  3  1  0
  8  3  1  0
 13  3  1  0
  5  4  1  0
 12  4  2  0
 14  4  1  0
  6  5  2  0
 13  6  1  0
 11  9  2  0
 11 10  1  0
 13 11  1  0
 15 14  1  0
 16 15  2  0
 20 15  1  0
 17 16  1  0
 18 17  2  0
 19 18  1  0
 20 19  2  0
 21 19  1  0
 22 21  1  0
 26 21  1  0
 23 22  1  0
 24 23  1  0
 25 24  1  0
 27 24  1  0
 30 24  1  0
 26 25  1  0
 28 27  1  0
 29 28  1  0
 31 30  1  0
A    1
C4
A    2
C5
A    3
C11
A    4
C7
A    5
C8
A    6
C9
A    7
C12
A    8
C13
A    9
N3
A   10
C1
A   11
C2
A   12
N6
A   13
N10
A   14
N14
A   15
C15
A   16
C16
A   17
C17
A   18
N18
A   19
C19
A   20
N20
A   21
N21
A   22
C22
A   23
C23
A   24
C24
A   25
C25
A   26
C26
A   27
C27
A   28
C28
A   29
N29
A   30
O30
A   31
C31
M  END
>  <Id>  (30) 
5C8N_4YX_A_1102

>  <ChainId>  (30) 
A

>  <AsymId>  (30) 
C

>  <SeqNum>  (30) 
1102

>  <Name>  (30) 
N-{2-[4-(2-aminoethyl)-4-methoxypiperidin-1-yl]pyrimidin-4-yl}-2-methyl-1-(propan-2-yl)-1H-imidazo[4,5-c]pyridin-6-amine

>  <SystematicName>  (30) 
N-[2-[4-(2-azanylethyl)-4-methoxy-piperidin-1-yl]pyrimidin-4-yl]-2-methyl-1-propan-2-yl-imidazo[4,5-c]pyridin-6-amine

>  <Synonyms>  (30) 


>  <Type>  (30) 
NON-POLYMER

>  <Formula>  (30) 
C22 H32 N8 O

>  <ObservedFormula>  (30) 
C22 N8 O

>  <MolecularWeight>  (30) 
424.542

>  <ModifiedDate>  (30) 
2015-10-23

>  <Parent>  (30) 


>  <OneLetterCode>  (30) 


>  <SubcomponentList>  (30) 


>  <AmbiguousFlag>  (30) 
N

>  <InsertionCode>  (30) 


>  <InstanceId>  (30) 
5C8N_4YX_A_1102

>  <ChemCompId>  (30) 
4YX

>  <PdbId>  (30) 
5C8N

>  <ResidueNumber>  (30) 
1102

>  <InChI>  (30) 
InChI=1S/C22H32N8O/c1-15(2)30-16(3)26-17-14-25-20(13-18(17)30)27-19-5-10-24-21(28-19)29-11-7-22(31-4,6-9-23)8-12-29/h5,10,13-15H,6-9,11-12,23H2,1-4H3,(H,24,25,27,28)

>  <InChIKey>  (30) 
CGDZTEHAPAOWKF-UHFFFAOYSA-N

>  <SMILES>  (30) 
Cc1nc2cnc(cc2n1C(C)C)Nc3ccnc(n3)N4CCC(CC4)(CCN)OC

>  <MissingHeavyAtoms>  (30) 
0

>  <Model>  (30) 
1

>  <AltIds>  (30) 


>  <pKI>  (30) 
6.31

>  <ChemblID>  (30) 
-

>  <standardized_canonical_smiles>  (30) 
COC1(CCN)CCN(c2nccc(Nc3cc4c(cn3)nc(C)n4C(C)C)n2)CC1

$$$$
5CAV_4ZQ_A_1101
     RDKit          3D

 34 37  0  0  0  0  0  0  0  0999 V2000
  -49.7640   -1.3820  -21.5290 C   0  0  0  0  0  0  0  0  0  0  0  0
  -52.9230    0.9730  -19.4470 C   0  0  0  0  0  0  0  0  0  0  0  0
  -53.8650    1.9770  -19.6830 C   0  0  0  0  0  0  0  0  0  0  0  0
  -54.1440    1.2900  -21.8900 C   0  0  0  0  0  0  0  0  0  0  0  0
  -53.1900    0.2710  -21.7430 C   0  0  0  0  0  0  0  0  0  0  0  0
  -52.5580    0.0910  -20.4990 C   0  0  0  0  0  0  0  0  0  0  0  0
  -50.8730   -1.8900  -20.6000 C   0  0  0  0  0  0  0  0  0  0  0  0
  -51.7820   -2.8800  -21.3390 C   0  0  0  0  0  0  0  0  0  0  0  0
  -51.4150   -0.3720  -18.6440 C   0  0  0  0  0  0  0  0  0  0  0  0
  -50.0430   -0.0170  -16.5540 C   0  0  0  0  0  0  0  0  0  0  0  0
  -50.4680   -1.0090  -17.6410 C   0  0  0  0  0  0  0  0  0  0  0  0
  -52.2060    0.6240  -18.3580 N   0  0  0  0  0  0  0  0  0  0  0  0
  -54.4320    2.0920  -20.8680 N   0  0  0  0  0  0  0  0  0  0  0  0
  -51.6060   -0.7710  -19.9510 N   0  0  0  0  0  0  0  0  0  0  0  0
  -49.0110   -0.3920  -20.8910 F   0  0  0  0  0  0  0  0  0  0  0  0
  -48.9130   -2.4550  -21.8220 F   0  0  0  0  0  0  0  0  0  0  0  0
  -50.3060   -0.8570  -22.7080 F   0  0  0  0  0  0  0  0  0  0  0  0
  -54.8200    1.5940  -23.0790 N   0  0  0  0  0  0  0  0  0  0  0  0
  -54.9520    0.8260  -24.2280 C   0  0  0  0  0  0  0  0  0  0  0  0
  -56.1270    0.9370  -24.9910 C   0  0  0  0  0  0  0  0  0  0  0  0
  -56.2470    0.1510  -26.1290 C   0  0  0  0  0  0  0  0  0  0  0  0
  -55.2470   -0.6600  -26.4730 N   0  0  0  0  0  0  0  0  0  0  0  0
  -54.1420   -0.7650  -25.7270 C   0  0  0  0  0  0  0  0  0  0  0  0
  -53.9860    0.0030  -24.6460 N   0  0  0  0  0  0  0  0  0  0  0  0
  -53.1050   -1.6170  -26.1060 N   0  0  0  0  0  0  0  0  0  0  0  0
  -52.2620   -2.2180  -25.0550 C   0  0  0  0  0  0  0  0  0  0  0  0
  -50.8370   -2.3070  -25.6240 C   0  0  0  0  0  0  0  0  0  0  0  0
  -50.8480   -3.0610  -26.9750 C   0  0  0  0  0  0  0  0  0  0  0  0
  -51.9230   -2.5240  -27.9540 C   0  0  0  0  0  0  0  0  0  0  0  0
  -53.2910   -2.4940  -27.2760 C   0  0  0  0  0  0  0  0  0  0  0  0
  -51.6420   -1.2060  -28.3330 F   0  0  0  0  0  0  0  0  0  0  0  0
  -49.5470   -2.9420  -27.5760 O   0  0  0  0  0  0  0  0  0  0  0  0
  -48.7300   -4.1190  -27.6160 C   0  0  0  0  0  0  0  0  0  0  0  0
  -51.1150   -2.1340  -17.0390 O   0  0  0  0  0  0  0  0  0  0  0  0
  7  1  1  0
 15  1  1  0
 16  1  1  0
 17  1  1  0
  3  2  2  0
  6  2  1  0
 12  2  1  0
 13  3  1  0
  5  4  1  0
 13  4  2  0
 18  4  1  0
  6  5  2  0
 14  6  1  0
  8  7  1  0
 14  7  1  0
 11  9  1  0
 12  9  2  0
 14  9  1  0
 11 10  1  0
 34 11  1  0
 19 18  1  0
 20 19  2  0
 24 19  1  0
 21 20  1  0
 22 21  2  0
 23 22  1  0
 24 23  2  0
 25 23  1  0
 26 25  1  0
 30 25  1  0
 27 26  1  0
 28 27  1  0
 29 28  1  0
 32 28  1  0
 30 29  1  0
 31 29  1  0
 33 32  1  0
A    1
C14
A    2
C5
A    3
C6
A    4
C8
A    5
C9
A    6
C10
A    7
C12
A    8
C13
A    9
C3
A   10
C1
A   11
C2
A   12
N4
A   13
N7
A   14
N11
A   15
F15
A   16
F16
A   17
F17
A   18
N18
A   19
C19
A   20
C20
A   21
C21
A   22
N22
A   23
C23
A   24
N24
A   25
N25
A   26
C26
A   27
C27
A   28
C28
A   29
C29
A   30
C30
A   31
F31
A   32
O32
A   33
C33
A   34
O34
M  END
>  <Id>  (31) 
5CAV_4ZQ_A_1101

>  <ChainId>  (31) 
A

>  <AsymId>  (31) 
B

>  <SeqNum>  (31) 
1101

>  <Name>  (31) 
(1R)-1-{6-({2-[(3R,4S)-3-fluoro-4-methoxypiperidin-1-yl]pyrimidin-4-yl}amino)-1-[(2S)-1,1,1-trifluoropropan-2-yl]-1H-imidazo[4,5-c]pyridin-2-yl}ethanol

>  <SystematicName>  (31) 
(1R)-1-[6-[[2-[(3R,4S)-3-fluoranyl-4-methoxy-piperidin-1-yl]pyrimidin-4-yl]amino]-1-[(2S)-1,1,1-tris(fluoranyl)propan-2-yl]imidazo[4,5-c]pyridin-2-yl]ethanol

>  <Synonyms>  (31) 


>  <Type>  (31) 
NON-POLYMER

>  <Formula>  (31) 
C21 H25 F4 N7 O2

>  <ObservedFormula>  (31) 
C21 F4 N7 O2

>  <MolecularWeight>  (31) 
483.463

>  <ModifiedDate>  (31) 
2015-10-23

>  <Parent>  (31) 


>  <OneLetterCode>  (31) 


>  <SubcomponentList>  (31) 


>  <AmbiguousFlag>  (31) 
N

>  <InsertionCode>  (31) 


>  <InstanceId>  (31) 
5CAV_4ZQ_A_1101

>  <ChemCompId>  (31) 
4ZQ

>  <PdbId>  (31) 
5CAV

>  <ResidueNumber>  (31) 
1101

>  <InChI>  (31) 
InChI=1S/C21H25F4N7O2/c1-11(33)19-28-14-9-27-18(8-15(14)32(19)12(2)21(23,24)25)29-17-4-6-26-20(30-17)31-7-5-16(34-3)13(22)10-31/h4,6,8-9,11-13,16,33H,5,7,10H2,1-3H3,(H,26,27,29,30)/t11-,12+,13-,16+/m1/s1

>  <InChIKey>  (31) 
BOPSHQJEVUOWPS-IATRGZMQSA-N

>  <SMILES>  (31) 
C[C@H](c1nc2cnc(cc2n1[C@@H](C)C(F)(F)F)Nc3ccnc(n3)N4CC[C@@H]([C@@H](C4)F)OC)O

>  <MissingHeavyAtoms>  (31) 
0

>  <Model>  (31) 
1

>  <AltIds>  (31) 


>  <pKI>  (31) 
8.85

>  <ChemblID>  (31) 
-

>  <standardized_canonical_smiles>  (31) 
CO[C@H]1CCN(c2nccc(Nc3cc4c(cn3)nc([C@@H](C)O)n4[C@@H](C)C(F)(F)F)n2)C[C@H]1F

$$$$
5CAS_4ZQ_A_1102
     RDKit          3D

 34 37  0  0  0  0  0  0  0  0999 V2000
  -49.5290   -0.9330  -21.9370 C   0  0  0  0  0  0  0  0  0  0  0  0
  -52.7010    1.1850  -19.6160 C   0  0  0  0  0  0  0  0  0  0  0  0
  -53.6990    2.1450  -19.7830 C   0  0  0  0  0  0  0  0  0  0  0  0
  -53.9630    1.5540  -22.0310 C   0  0  0  0  0  0  0  0  0  0  0  0
  -52.9340    0.6070  -21.9630 C   0  0  0  0  0  0  0  0  0  0  0  0
  -52.3000    0.3960  -20.7280 C   0  0  0  0  0  0  0  0  0  0  0  0
  -50.5780   -1.4870  -20.9850 C   0  0  0  0  0  0  0  0  0  0  0  0
  -51.4850   -2.5990  -21.5440 C   0  0  0  0  0  0  0  0  0  0  0  0
  -51.1220   -0.1330  -18.9190 C   0  0  0  0  0  0  0  0  0  0  0  0
  -50.0070   -0.1520  -16.6200 C   0  0  0  0  0  0  0  0  0  0  0  0
  -50.1210   -0.8110  -17.9990 C   0  0  0  0  0  0  0  0  0  0  0  0
  -51.9480    0.8060  -18.5630 N   0  0  0  0  0  0  0  0  0  0  0  0
  -54.2950    2.2700  -20.9560 N   0  0  0  0  0  0  0  0  0  0  0  0
  -51.3020   -0.4340  -20.2480 N   0  0  0  0  0  0  0  0  0  0  0  0
  -48.7110   -0.0380  -21.2590 F   0  0  0  0  0  0  0  0  0  0  0  0
  -48.7580   -1.9750  -22.4320 F   0  0  0  0  0  0  0  0  0  0  0  0
  -50.1300   -0.2570  -22.9890 F   0  0  0  0  0  0  0  0  0  0  0  0
  -54.6470    1.8740  -23.2090 N   0  0  0  0  0  0  0  0  0  0  0  0
  -54.8220    1.1100  -24.3530 C   0  0  0  0  0  0  0  0  0  0  0  0
  -56.0020    1.2570  -25.1000 C   0  0  0  0  0  0  0  0  0  0  0  0
  -56.1520    0.4760  -26.2450 C   0  0  0  0  0  0  0  0  0  0  0  0
  -55.1840   -0.3760  -26.5810 N   0  0  0  0  0  0  0  0  0  0  0  0
  -54.0720   -0.5150  -25.8420 C   0  0  0  0  0  0  0  0  0  0  0  0
  -53.8870    0.2600  -24.7720 N   0  0  0  0  0  0  0  0  0  0  0  0
  -53.0250   -1.3500  -26.2420 N   0  0  0  0  0  0  0  0  0  0  0  0
  -52.0410   -1.8280  -25.2400 C   0  0  0  0  0  0  0  0  0  0  0  0
  -50.6300   -1.8160  -25.8790 C   0  0  0  0  0  0  0  0  0  0  0  0
  -50.6230   -2.6120  -27.2070 C   0  0  0  0  0  0  0  0  0  0  0  0
  -51.7110   -2.1110  -28.1830 C   0  0  0  0  0  0  0  0  0  0  0  0
  -53.0940   -2.0810  -27.5270 C   0  0  0  0  0  0  0  0  0  0  0  0
  -51.4170   -0.7950  -28.5290 F   0  0  0  0  0  0  0  0  0  0  0  0
  -49.3540   -2.4510  -27.8440 O   0  0  0  0  0  0  0  0  0  0  0  0
  -48.5140   -3.6060  -27.7360 C   0  0  0  0  0  0  0  0  0  0  0  0
  -50.5620   -2.1560  -17.8340 O   0  0  0  0  0  0  0  0  0  0  0  0
  7  1  1  0
 15  1  1  0
 16  1  1  0
 17  1  1  0
  3  2  2  0
  6  2  1  0
 12  2  1  0
 13  3  1  0
  5  4  1  0
 13  4  2  0
 18  4  1  0
  6  5  2  0
 14  6  1  0
  8  7  1  0
 14  7  1  0
 11  9  1  0
 12  9  2  0
 14  9  1  0
 11 10  1  0
 34 11  1  0
 19 18  1  0
 20 19  2  0
 24 19  1  0
 21 20  1  0
 22 21  2  0
 23 22  1  0
 24 23  2  0
 25 23  1  0
 26 25  1  0
 30 25  1  0
 27 26  1  0
 28 27  1  0
 29 28  1  0
 32 28  1  0
 30 29  1  0
 31 29  1  0
 33 32  1  0
A    1
C14
A    2
C5
A    3
C6
A    4
C8
A    5
C9
A    6
C10
A    7
C12
A    8
C13
A    9
C3
A   10
C1
A   11
C2
A   12
N4
A   13
N7
A   14
N11
A   15
F15
A   16
F16
A   17
F17
A   18
N18
A   19
C19
A   20
C20
A   21
C21
A   22
N22
A   23
C23
A   24
N24
A   25
N25
A   26
C26
A   27
C27
A   28
C28
A   29
C29
A   30
C30
A   31
F31
A   32
O32
A   33
C33
A   34
O34
M  END
>  <Id>  (32) 
5CAS_4ZQ_A_1102

>  <ChainId>  (32) 
A

>  <AsymId>  (32) 
C

>  <SeqNum>  (32) 
1102

>  <Name>  (32) 
(1R)-1-{6-({2-[(3R,4S)-3-fluoro-4-methoxypiperidin-1-yl]pyrimidin-4-yl}amino)-1-[(2S)-1,1,1-trifluoropropan-2-yl]-1H-imidazo[4,5-c]pyridin-2-yl}ethanol

>  <SystematicName>  (32) 
(1R)-1-[6-[[2-[(3R,4S)-3-fluoranyl-4-methoxy-piperidin-1-yl]pyrimidin-4-yl]amino]-1-[(2S)-1,1,1-tris(fluoranyl)propan-2-yl]imidazo[4,5-c]pyridin-2-yl]ethanol

>  <Synonyms>  (32) 


>  <Type>  (32) 
NON-POLYMER

>  <Formula>  (32) 
C21 H25 F4 N7 O2

>  <ObservedFormula>  (32) 
C21 F4 N7 O2

>  <MolecularWeight>  (32) 
483.463

>  <ModifiedDate>  (32) 
2015-10-23

>  <Parent>  (32) 


>  <OneLetterCode>  (32) 


>  <SubcomponentList>  (32) 


>  <AmbiguousFlag>  (32) 
N

>  <InsertionCode>  (32) 


>  <InstanceId>  (32) 
5CAS_4ZQ_A_1102

>  <ChemCompId>  (32) 
4ZQ

>  <PdbId>  (32) 
5CAS

>  <ResidueNumber>  (32) 
1102

>  <InChI>  (32) 
InChI=1S/C21H25F4N7O2/c1-11(33)19-28-14-9-27-18(8-15(14)32(19)12(2)21(23,24)25)29-17-4-6-26-20(30-17)31-7-5-16(34-3)13(22)10-31/h4,6,8-9,11-13,16,33H,5,7,10H2,1-3H3,(H,26,27,29,30)/t11-,12+,13-,16+/m1/s1

>  <InChIKey>  (32) 
BOPSHQJEVUOWPS-IATRGZMQSA-N

>  <SMILES>  (32) 
C[C@H](c1nc2cnc(cc2n1[C@@H](C)C(F)(F)F)Nc3ccnc(n3)N4CC[C@@H]([C@@H](C4)F)OC)O

>  <MissingHeavyAtoms>  (32) 
0

>  <Model>  (32) 
1

>  <AltIds>  (32) 


>  <pKI>  (32) 
8.85

>  <ChemblID>  (32) 
-

>  <standardized_canonical_smiles>  (32) 
CO[C@H]1CCN(c2nccc(Nc3cc4c(cn3)nc([C@@H](C)O)n4[C@@H](C)C(F)(F)F)n2)C[C@H]1F

$$$$
5CAU_4ZR_A_1102
     RDKit          3D

 34 37  0  0  0  0  0  0  0  0999 V2000
  -49.6030   -1.0120  -21.9970 C   0  0  0  0  0  0  0  0  0  0  0  0
  -52.7440    1.0990  -19.7160 C   0  0  0  0  0  0  0  0  0  0  0  0
  -53.7210    2.0750  -19.8810 C   0  0  0  0  0  0  0  0  0  0  0  0
  -53.9950    1.4740  -22.1210 C   0  0  0  0  0  0  0  0  0  0  0  0
  -53.0030    0.4930  -22.0470 C   0  0  0  0  0  0  0  0  0  0  0  0
  -52.3640    0.2850  -20.8170 C   0  0  0  0  0  0  0  0  0  0  0  0
  -50.6690   -1.6110  -21.0870 C   0  0  0  0  0  0  0  0  0  0  0  0
  -51.5250   -2.7360  -21.6940 C   0  0  0  0  0  0  0  0  0  0  0  0
  -51.1770   -0.2280  -19.0130 C   0  0  0  0  0  0  0  0  0  0  0  0
  -50.1140   -0.1730  -16.7040 C   0  0  0  0  0  0  0  0  0  0  0  0
  -50.1770   -0.8640  -18.0690 C   0  0  0  0  0  0  0  0  0  0  0  0
  -51.9920    0.7190  -18.6640 N   0  0  0  0  0  0  0  0  0  0  0  0
  -54.2970    2.2230  -21.0590 N   0  0  0  0  0  0  0  0  0  0  0  0
  -51.3960   -0.5730  -20.3300 N   0  0  0  0  0  0  0  0  0  0  0  0
  -50.1770   -0.3040  -23.0390 F   0  0  0  0  0  0  0  0  0  0  0  0
  -48.8080   -0.1400  -21.2550 F   0  0  0  0  0  0  0  0  0  0  0  0
  -48.8150   -2.0260  -22.5250 F   0  0  0  0  0  0  0  0  0  0  0  0
  -54.6860    1.7850  -23.2900 N   0  0  0  0  0  0  0  0  0  0  0  0
  -54.8980    1.0050  -24.4110 C   0  0  0  0  0  0  0  0  0  0  0  0
  -56.1110    1.1230  -25.1090 C   0  0  0  0  0  0  0  0  0  0  0  0
  -56.2620    0.3410  -26.2460 C   0  0  0  0  0  0  0  0  0  0  0  0
  -55.2910   -0.4890  -26.6260 N   0  0  0  0  0  0  0  0  0  0  0  0
  -54.1490   -0.5950  -25.9380 C   0  0  0  0  0  0  0  0  0  0  0  0
  -53.9610    0.1750  -24.8650 N   0  0  0  0  0  0  0  0  0  0  0  0
  -53.0950   -1.4080  -26.3760 N   0  0  0  0  0  0  0  0  0  0  0  0
  -53.1940   -2.1540  -27.6530 C   0  0  0  0  0  0  0  0  0  0  0  0
  -51.8190   -2.2230  -28.3440 C   0  0  0  0  0  0  0  0  0  0  0  0
  -50.7440   -2.7320  -27.3600 C   0  0  0  0  0  0  0  0  0  0  0  0
  -50.6940   -1.8630  -26.0800 C   0  0  0  0  0  0  0  0  0  0  0  0
  -52.0740   -1.8560  -25.3980 C   0  0  0  0  0  0  0  0  0  0  0  0
  -50.3550   -0.5590  -26.4610 F   0  0  0  0  0  0  0  0  0  0  0  0
  -49.4770   -2.6730  -28.0180 O   0  0  0  0  0  0  0  0  0  0  0  0
  -48.5890   -3.7410  -27.6710 C   0  0  0  0  0  0  0  0  0  0  0  0
  -50.5880   -2.2060  -17.8730 O   0  0  0  0  0  0  0  0  0  0  0  0
  7  1  1  0
 15  1  1  0
 16  1  1  0
 17  1  1  0
  3  2  2  0
  6  2  1  0
 12  2  1  0
 13  3  1  0
  5  4  1  0
 13  4  2  0
 18  4  1  0
  6  5  2  0
 14  6  1  0
  8  7  1  0
 14  7  1  0
 11  9  1  0
 12  9  2  0
 14  9  1  0
 11 10  1  0
 34 11  1  0
 19 18  1  0
 20 19  2  0
 24 19  1  0
 21 20  1  0
 22 21  2  0
 23 22  1  0
 24 23  2  0
 25 23  1  0
 26 25  1  0
 30 25  1  0
 27 26  1  0
 28 27  1  0
 29 28  1  0
 32 28  1  0
 30 29  1  0
 31 29  1  0
 33 32  1  0
A    1
C14
A    2
C5
A    3
C6
A    4
C8
A    5
C9
A    6
C10
A    7
C12
A    8
C13
A    9
C3
A   10
C1
A   11
C2
A   12
N4
A   13
N7
A   14
N11
A   15
F15
A   16
F16
A   17
F17
A   18
N18
A   19
C19
A   20
C20
A   21
C21
A   22
N22
A   23
C23
A   24
N24
A   25
N25
A   26
C26
A   27
C27
A   28
C28
A   29
C29
A   30
C30
A   31
F31
A   32
O32
A   33
C33
A   34
O34
M  END
>  <Id>  (33) 
5CAU_4ZR_A_1102

>  <ChainId>  (33) 
A

>  <AsymId>  (33) 
C

>  <SeqNum>  (33) 
1102

>  <Name>  (33) 
(1R)-1-{6-({2-[(3S,4R)-3-fluoro-4-methoxypiperidin-1-yl]pyrimidin-4-yl}amino)-1-[(2S)-1,1,1-trifluoropropan-2-yl]-1H-imidazo[4,5-c]pyridin-2-yl}ethanol

>  <SystematicName>  (33) 
(1R)-1-[6-[[2-[(3S,4R)-3-fluoranyl-4-methoxy-piperidin-1-yl]pyrimidin-4-yl]amino]-1-[(2S)-1,1,1-tris(fluoranyl)propan-2-yl]imidazo[4,5-c]pyridin-2-yl]ethanol

>  <Synonyms>  (33) 


>  <Type>  (33) 
NON-POLYMER

>  <Formula>  (33) 
C21 H25 F4 N7 O2

>  <ObservedFormula>  (33) 
C21 F4 N7 O2

>  <MolecularWeight>  (33) 
483.463

>  <ModifiedDate>  (33) 
2015-10-23

>  <Parent>  (33) 


>  <OneLetterCode>  (33) 


>  <SubcomponentList>  (33) 


>  <AmbiguousFlag>  (33) 
N

>  <InsertionCode>  (33) 


>  <InstanceId>  (33) 
5CAU_4ZR_A_1102

>  <ChemCompId>  (33) 
4ZR

>  <PdbId>  (33) 
5CAU

>  <ResidueNumber>  (33) 
1102

>  <InChI>  (33) 
InChI=1S/C21H25F4N7O2/c1-11(33)19-28-14-9-27-18(8-15(14)32(19)12(2)21(23,24)25)29-17-4-6-26-20(30-17)31-7-5-16(34-3)13(22)10-31/h4,6,8-9,11-13,16,33H,5,7,10H2,1-3H3,(H,26,27,29,30)/t11-,12+,13+,16-/m1/s1

>  <InChIKey>  (33) 
BOPSHQJEVUOWPS-LMOYCYGVSA-N

>  <SMILES>  (33) 
C[C@H](c1nc2cnc(cc2n1[C@@H](C)C(F)(F)F)Nc3ccnc(n3)N4CC[C@H]([C@H](C4)F)OC)O

>  <MissingHeavyAtoms>  (33) 
0

>  <Model>  (33) 
1

>  <AltIds>  (33) 


>  <pKI>  (33) 
8.8

>  <ChemblID>  (33) 
-

>  <standardized_canonical_smiles>  (33) 
CO[C@@H]1CCN(c2nccc(Nc3cc4c(cn3)nc([C@@H](C)O)n4[C@@H](C)C(F)(F)F)n2)C[C@@H]1F

$$$$
1XKK_FMM_A_91
     RDKit          3D

 40 44  0  0  0  0  0  0  0  0999 V2000
   22.6040   34.4870   31.1410 C   0  0  0  0  0  0  0  0  0  0  0  0
   24.0360   33.4650   31.3500 S   0  0  0  0  0  0  0  0  0  0  0  0
   25.0530   34.2040   32.0670 O   0  0  0  0  0  0  0  0  0  0  0  0
   24.5430   33.0770   30.0530 O   0  0  0  0  0  0  0  0  0  0  0  0
   23.5870   31.9800   32.2910 C   0  0  0  0  0  0  0  0  0  0  0  0
   22.0610   31.8360   32.3240 C   0  0  0  0  0  0  0  0  0  0  0  0
   21.5690   32.1840   33.6650 N   0  0  0  0  0  0  0  0  0  0  0  0
   20.9140   31.0190   34.2650 C   0  0  0  0  0  0  0  0  0  0  0  0
   19.4160   31.2080   34.2230 C   0  0  0  0  0  0  0  0  0  0  0  0
   18.6740   30.9770   33.1210 C   0  0  0  0  0  0  0  0  0  0  0  0
   17.4450   31.2370   33.4210 C   0  0  0  0  0  0  0  0  0  0  0  0
   17.4090   31.6450   34.7310 C   0  0  0  0  0  0  0  0  0  0  0  0
   18.6550   31.6530   35.3630 O   0  0  0  0  0  0  0  0  0  0  0  0
   16.1760   32.0580   35.4070 C   0  0  0  0  0  0  0  0  0  0  0  0
   14.9580   31.9860   34.7350 C   0  0  0  0  0  0  0  0  0  0  0  0
   13.8070   32.4020   35.3590 C   0  0  0  0  0  0  0  0  0  0  0  0
   13.8490   32.8900   36.6640 C   0  0  0  0  0  0  0  0  0  0  0  0
   12.6830   33.3050   37.2760 N   0  0  0  0  0  0  0  0  0  0  0  0
   12.7080   33.7900   38.5680 C   0  0  0  0  0  0  0  0  0  0  0  0
   13.8990   33.8630   39.2600 N   0  0  0  0  0  0  0  0  0  0  0  0
   15.0770   33.4520   38.6680 C   0  0  0  0  0  0  0  0  0  0  0  0
   16.2820   33.5270   39.3660 N   0  0  0  0  0  0  0  0  0  0  0  0
   16.3320   33.8430   40.7350 C   0  0  0  0  0  0  0  0  0  0  0  0
   17.1180   34.9090   41.1780 C   0  0  0  0  0  0  0  0  0  0  0  0
   17.1640   35.2150   42.5350 C   0  0  0  0  0  0  0  0  0  0  0  0
   16.4280   34.4570   43.4380 C   0  0  0  0  0  0  0  0  0  0  0  0
   16.4460   34.7470   44.8280 O   0  0  0  0  0  0  0  0  0  0  0  0
   17.0650   36.0020   45.1430 C   0  0  0  0  0  0  0  0  0  0  0  0
   16.0850   37.1810   44.9840 C   0  0  0  0  0  0  0  0  0  0  0  0
   16.5190   38.4620   45.2460 C   0  0  0  0  0  0  0  0  0  0  0  0
   15.6530   39.5270   45.1020 C   0  0  0  0  0  0  0  0  0  0  0  0
   14.3540   39.3120   44.6930 C   0  0  0  0  0  0  0  0  0  0  0  0
   13.9160   38.0360   44.4290 C   0  0  0  0  0  0  0  0  0  0  0  0
   12.6790   37.8370   44.0350 F   0  0  0  0  0  0  0  0  0  0  0  0
   14.7720   36.9660   44.5730 C   0  0  0  0  0  0  0  0  0  0  0  0
   15.6650   33.4150   42.9990 C   0  0  0  0  0  0  0  0  0  0  0  0
   14.7840   32.5140   44.1280 Cl  0  0  0  0  0  0  0  0  0  0  0  0
   15.6070   33.0980   41.6600 C   0  0  0  0  0  0  0  0  0  0  0  0
   15.0530   32.9590   37.3490 C   0  0  0  0  0  0  0  0  0  0  0  0
   16.2200   32.5450   36.7310 C   0  0  0  0  0  0  0  0  0  0  0  0
  2  1  1  0
  3  2  2  0
  4  2  2  0
  5  2  1  0
  6  5  1  0
  7  6  1  0
  8  7  1  0
  9  8  1  0
 10  9  2  0
 13  9  1  0
 11 10  1  0
 12 11  2  0
 13 12  1  0
 14 12  1  0
 15 14  2  0
 40 14  1  0
 16 15  1  0
 17 16  2  0
 18 17  1  0
 39 17  1  0
 19 18  2  0
 20 19  1  0
 21 20  2  0
 22 21  1  0
 39 21  1  0
 23 22  1  0
 24 23  2  0
 38 23  1  0
 25 24  1  0
 26 25  2  0
 27 26  1  0
 36 26  1  0
 28 27  1  0
 29 28  1  0
 30 29  2  0
 35 29  1  0
 31 30  1  0
 32 31  2  0
 33 32  1  0
 34 33  1  0
 35 33  2  0
 37 36  1  0
 38 36  2  0
 40 39  2  0
A    1
C1
A    2
S2
A    3
O3
A    4
O4
A    5
C5
A    6
C6
A    7
N7
A    8
C8
A    9
C9
A   10
C10
A   11
C11
A   12
C12
A   13
O13
A   14
C14
A   15
C15
A   16
C16
A   17
C17
A   18
N18
A   19
C19
A   20
N20
A   21
C21
A   22
N22
A   23
C23
A   24
C24
A   25
C25
A   26
C26
A   27
O27
A   28
C28
A   29
C29
A   30
C30
A   31
C31
A   32
C32
A   33
C33
A   34
F34
A   35
C35
A   36
C36
A   37
CL3
A   38
C38
A   39
C39
A   40
C40
M  END
>  <Id>  (34) 
1XKK_FMM_A_91

>  <ChainId>  (34) 
A

>  <AsymId>  (34) 
D

>  <SeqNum>  (34) 
91

>  <Name>  (34) 
N-{3-CHLORO-4-[(3-FLUOROBENZYL)OXY]PHENYL}-6-[5-({[2-(METHYLSULFONYL)ETHYL]AMINO}METHYL)-2-FURYL]-4-QUINAZOLINAMINE

>  <SystematicName>  (34) 
N-[3-chloro-4-[(3-fluorophenyl)methoxy]phenyl]-6-[5-[(2-methylsulfonylethylamino)methyl]furan-2-yl]quinazolin-4-amine

>  <Synonyms>  (34) 


>  <Type>  (34) 
NON-POLYMER

>  <Formula>  (34) 
C29 H26 Cl F N4 O4 S

>  <ObservedFormula>  (34) 
C29 S F Cl N4 O4

>  <MolecularWeight>  (34) 
581.058

>  <ModifiedDate>  (34) 
2011-06-04

>  <Parent>  (34) 


>  <OneLetterCode>  (34) 


>  <SubcomponentList>  (34) 


>  <AmbiguousFlag>  (34) 
N

>  <InsertionCode>  (34) 


>  <InstanceId>  (34) 
1XKK_FMM_A_91

>  <ChemCompId>  (34) 
FMM

>  <PdbId>  (34) 
1XKK

>  <ResidueNumber>  (34) 
91

>  <InChI>  (34) 
InChI=1S/C29H26ClFN4O4S/c1-40(36,37)12-11-32-16-23-7-10-27(39-23)20-5-8-26-24(14-20)29(34-18-33-26)35-22-6-9-28(25(30)15-22)38-17-19-3-2-4-21(31)13-19/h2-10,13-15,18,32H,11-12,16-17H2,1H3,(H,33,34,35)

>  <InChIKey>  (34) 
BCFGMOOMADDAQU-UHFFFAOYSA-N

>  <SMILES>  (34) 
CS(=O)(=O)CCNCc1ccc(o1)c2ccc3c(c2)c(ncn3)Nc4ccc(c(c4)Cl)OCc5cccc(c5)F

>  <MissingHeavyAtoms>  (34) 
0

>  <Model>  (34) 
1

>  <AltIds>  (34) 


>  <pKI>  (34) 
8.52

>  <ChemblID>  (34) 
-

>  <standardized_canonical_smiles>  (34) 
CS(=O)(=O)CCNCc1ccc(-c2ccc3ncnc(Nc4ccc(OCc5cccc(F)c5)c(Cl)c4)c3c2)o1

$$$$
