1F5L_AMR_A_301
     RDKit          3D

 15 15  0  0  0  0  0  0  0  0999 V2000
   31.1120    7.6690   27.6830 N   0  0  0  0  0  0  0  0  0  0  0  0
   30.5020    6.7410   28.4320 C   0  0  0  0  0  0  0  0  0  0  0  0
   31.2400    5.3550   28.6010 C   0  0  0  0  0  0  0  0  0  0  0  0
   32.5550    5.2790   28.1310 N   0  0  0  0  0  0  0  0  0  0  0  0
   33.2510    4.1770   28.0800 C   0  0  0  0  0  0  0  0  0  0  0  0
   32.7670    3.0180   28.4620 N   0  0  0  0  0  0  0  0  0  0  0  0
   34.4700    4.2400   27.6300 N   0  0  0  0  0  0  0  0  0  0  0  0
   30.6520    4.3960   29.1150 O   0  0  0  0  0  0  0  0  0  0  0  0
   29.2610    7.0260   29.0190 C   0  0  0  0  0  0  0  0  0  0  0  0
   28.5730    6.0860   29.8140 N   0  0  0  0  0  0  0  0  0  0  0  0
   28.6930    8.2380   28.8250 N   0  0  0  0  0  0  0  0  0  0  0  0
   29.3140    9.1790   28.0650 C   0  0  0  0  0  0  0  0  0  0  0  0
   28.6660   10.4360   27.8950 N   0  0  0  0  0  0  0  0  0  0  0  0
   30.5610    8.8800   27.4780 C   0  0  0  0  0  0  0  0  0  0  0  0
   31.4320   10.0160   26.4870 Cl  0  0  0  0  0  0  0  0  0  0  0  0
  2  1  2  0
 14  1  1  0
  3  2  1  0
  9  2  1  0
  4  3  1  0
  8  3  2  0
  5  4  1  0
  6  5  1  0
  7  5  2  0
 10  9  1  0
 11  9  2  0
 12 11  1  0
 13 12  1  0
 14 12  2  0
 15 14  1  0
A    1
N1
A    2
C1
A    3
C3
A    4
N5
A    5
C6
A    6
N7
A    7
N6
A    8
O1
A    9
C2
A   10
N4
A   11
N3
A   12
C4
A   13
N2
A   14
C5
A   15
CL1
M  END
>  <Id>  (1) 
1F5L_AMR_A_301

>  <ChainId>  (1) 
A

>  <AsymId>  (1) 
D

>  <SeqNum>  (1) 
301

>  <Name>  (1) 
3,5-DIAMINO-N-(AMINOIMINOMETHYL)-6-CHLOROPYRAZINECARBOXAMIDE

>  <SystematicName>  (1) 
3,5-diamino-N-carbamimidoyl-6-chloro-pyrazine-2-carboxamide

>  <Synonyms>  (1) 
AMILORIDE

>  <Type>  (1) 
NON-POLYMER

>  <Formula>  (1) 
C6 H8 Cl N7 O

>  <ObservedFormula>  (1) 
C6 Cl N7 O

>  <MolecularWeight>  (1) 
229.627

>  <ModifiedDate>  (1) 
2011-06-04

>  <Parent>  (1) 


>  <OneLetterCode>  (1) 


>  <SubcomponentList>  (1) 


>  <AmbiguousFlag>  (1) 
N

>  <InsertionCode>  (1) 


>  <InstanceId>  (1) 
1F5L_AMR_A_301

>  <ChemCompId>  (1) 
AMR

>  <PdbId>  (1) 
1F5L

>  <ResidueNumber>  (1) 
301

>  <InChI>  (1) 
InChI=1S/C6H8ClN7O/c7-2-4(9)13-3(8)1(12-2)5(15)14-6(10)11/h(H4,8,9,13)(H4,10,11,14,15)

>  <InChIKey>  (1) 
XSDQTOBWRPYKKA-UHFFFAOYSA-N

>  <SMILES>  (1) 
c1(c(nc(c(n1)Cl)N)N)C(=O)NC(=N)N

>  <MissingHeavyAtoms>  (1) 
0

>  <Model>  (1) 
1

>  <AltIds>  (1) 


>  <pKI>  (1) 
5.38

>  <ChemblID>  (1) 
CHEMBL945

>  <standardized_canonical_smiles>  (1) 
N=C(N)NC(=O)c1nc(Cl)c(N)nc1N

$$$$
2O8W_PL0_A_800
     RDKit          3D

 10 10  0  0  0  0  0  0  0  0999 V2000
   -0.8160   33.5570    9.1250 C   0  0  0  0  0  0  0  0  0  0  0  0
   -1.3290   33.4740   10.4650 C   0  0  0  0  0  0  0  0  0  0  0  0
   -1.4430   34.6650   11.2670 C   0  0  0  0  0  0  0  0  0  0  0  0
   -1.0430   35.9190   10.7150 C   0  0  0  0  0  0  0  0  0  0  0  0
   -0.5320   35.9940    9.3820 C   0  0  0  0  0  0  0  0  0  0  0  0
   -0.4210   34.8210    8.5990 C   0  0  0  0  0  0  0  0  0  0  0  0
   -1.6660   38.1280   11.2540 C   0  0  0  0  0  0  0  0  0  0  0  0
   -1.2610   36.9930   11.7580 N   0  0  0  0  0  0  0  0  0  0  0  0
   -1.9820   38.7710   10.1830 N   0  0  0  0  0  0  0  0  0  0  0  0
   -1.7540   38.8410   12.3620 N   0  0  0  0  0  0  0  0  0  0  0  0
  2  1  2  0
  6  1  1  0
  3  2  1  0
  4  3  2  0
  5  4  1  0
  8  4  1  0
  6  5  2  0
  8  7  1  0
  9  7  1  0
 10  7  2  0
A    1
C2
A    2
C3
A    3
C4
A    4
C5
A    5
C6
A    6
C1
A    7
C7
A    8
N1
A    9
N2
A   10
N3
M  END
>  <Id>  (2) 
2O8W_PL0_A_800

>  <ChainId>  (2) 
A

>  <AsymId>  (2) 
D

>  <SeqNum>  (2) 
800

>  <Name>  (2) 
1-phenylguanidine

>  <SystematicName>  (2) 
1-phenylguanidine

>  <Synonyms>  (2) 


>  <Type>  (2) 
NON-POLYMER

>  <Formula>  (2) 
C7 H9 N3

>  <ObservedFormula>  (2) 
C7 N3

>  <MolecularWeight>  (2) 
135.166

>  <ModifiedDate>  (2) 
2011-06-04

>  <Parent>  (2) 


>  <OneLetterCode>  (2) 


>  <SubcomponentList>  (2) 


>  <AmbiguousFlag>  (2) 


>  <InsertionCode>  (2) 


>  <InstanceId>  (2) 
2O8W_PL0_A_800

>  <ChemCompId>  (2) 
PL0

>  <PdbId>  (2) 
2O8W

>  <ResidueNumber>  (2) 
800

>  <InChI>  (2) 
InChI=1S/C7H9N3/c8-7(9)10-6-4-2-1-3-5-6/h1-5H,(H4,8,9,10)

>  <InChIKey>  (2) 
QRJZGVVKGFIGLI-UHFFFAOYSA-N

>  <SMILES>  (2) 
[H]/N=C(/N)\Nc1ccccc1

>  <MissingHeavyAtoms>  (2) 
0

>  <Model>  (2) 
1

>  <AltIds>  (2) 


>  <pKI>  (2) 
4.69

>  <ChemblID>  (2) 
CHEMBL14047

>  <standardized_canonical_smiles>  (2) 
N=C(N)Nc1ccccc1

$$$$
1SQO_UI2_A_1001
     RDKit          3D

 20 22  0  0  0  0  0  0  0  0999 V2000
   22.8480   15.6040   33.4860 C   0  0  0  0  0  0  0  0  0  0  0  0
   21.5630   15.6150   32.9250 C   0  0  0  0  0  0  0  0  0  0  0  0
   20.6830   16.7430   33.1310 C   0  0  0  0  0  0  0  0  0  0  0  0
   21.1830   17.8310   33.9200 C   0  0  0  0  0  0  0  0  0  0  0  0
   22.4840   17.8600   34.4720 C   0  0  0  0  0  0  0  0  0  0  0  0
   23.3140   16.7200   34.2580 C   0  0  0  0  0  0  0  0  0  0  0  0
   19.3950   16.7020   32.5920 C   0  0  0  0  0  0  0  0  0  0  0  0
   18.5190   17.7660   32.9440 C   0  0  0  0  0  0  0  0  0  0  0  0
   18.9390   18.8490   33.7780 C   0  0  0  0  0  0  0  0  0  0  0  0
   20.2510   18.9260   34.2320 C   0  0  0  0  0  0  0  0  0  0  0  0
   23.0230   18.9790   35.1990 N   0  0  0  0  0  0  0  0  0  0  0  0
   23.5730   18.9350   36.4770 C   0  0  0  0  0  0  0  0  0  0  0  0
   23.5420   17.8270   37.2840 N   0  0  0  0  0  0  0  0  0  0  0  0
   24.0180   17.7620   38.5550 C   0  0  0  0  0  0  0  0  0  0  0  0
   24.6230   18.9260   39.1790 C   0  0  0  0  0  0  0  0  0  0  0  0
   24.5650   20.0600   38.2700 C   0  0  0  0  0  0  0  0  0  0  0  0
   24.1230   20.0870   37.0400 N   0  0  0  0  0  0  0  0  0  0  0  0
   18.1090   19.8910   34.1900 C   0  0  0  0  0  0  0  0  0  0  0  0
   16.8030   19.7790   34.1600 N   0  0  0  0  0  0  0  0  0  0  0  0
   18.5430   21.0900   34.6510 N   0  0  0  0  0  0  0  0  0  0  0  0
  2  1  2  0
  6  1  1  0
  3  2  1  0
  4  3  2  0
  7  3  1  0
  5  4  1  0
 10  4  1  0
  6  5  2  0
 11  5  1  0
  8  7  2  0
  9  8  1  0
 10  9  2  0
 18  9  1  0
 12 11  1  0
 13 12  2  0
 17 12  1  0
 14 13  1  0
 15 14  2  0
 16 15  1  0
 17 16  2  0
 19 18  2  0
 20 18  1  0
A    1
C1
A    2
C2
A    3
C3
A    4
C4
A    5
C5
A    6
C6
A    7
C10
A    8
C11
A    9
C12
A   10
C13
A   11
N17
A   12
C18
A   13
N19
A   14
C20
A   15
C21
A   16
C22
A   17
N23
A   18
C28
A   19
N29
A   20
N30
M  END
>  <Id>  (3) 
1SQO_UI2_A_1001

>  <ChainId>  (3) 
A

>  <AsymId>  (3) 
E

>  <SeqNum>  (3) 
1001

>  <Name>  (3) 
8-(PYRIMIDIN-2-YLAMINO)NAPHTHALENE-2-CARBOXIMIDAMIDE

>  <SystematicName>  (3) 
8-(pyrimidin-2-ylamino)naphthalene-2-carboximidamide

>  <Synonyms>  (3) 


>  <Type>  (3) 
NON-POLYMER

>  <Formula>  (3) 
C15 H13 N5

>  <ObservedFormula>  (3) 
C15 N5

>  <MolecularWeight>  (3) 
263.297

>  <ModifiedDate>  (3) 
2011-06-04

>  <Parent>  (3) 


>  <OneLetterCode>  (3) 


>  <SubcomponentList>  (3) 


>  <AmbiguousFlag>  (3) 
N

>  <InsertionCode>  (3) 


>  <InstanceId>  (3) 
1SQO_UI2_A_1001

>  <ChemCompId>  (3) 
UI2

>  <PdbId>  (3) 
1SQO

>  <ResidueNumber>  (3) 
1001

>  <InChI>  (3) 
InChI=1S/C15H13N5/c16-14(17)11-6-5-10-3-1-4-13(12(10)9-11)20-15-18-7-2-8-19-15/h1-9H,(H3,16,17)(H,18,19,20)

>  <InChIKey>  (3) 
GRQLDCHTDNYVQI-UHFFFAOYSA-N

>  <SMILES>  (3) 
c1cc2ccc(cc2c(c1)Nc3ncccn3)C(=N)N

>  <MissingHeavyAtoms>  (3) 
0

>  <Model>  (3) 
1

>  <AltIds>  (3) 


>  <pKI>  (3) 
7.49

>  <ChemblID>  (3) 
CHEMBL103043

>  <standardized_canonical_smiles>  (3) 
N=C(N)c1ccc2cccc(Nc3ncccn3)c2c1

$$$$
1SQA_UI1_A_1001
     RDKit          3D

 31 34  0  0  0  0  0  0  0  0999 V2000
   29.5520   11.8530   28.7170 N   0  0  0  0  0  0  0  0  0  0  0  0
   28.3300   11.0730   28.8590 C   0  0  0  0  0  0  0  0  0  0  0  0
   27.2630   11.8440   29.6510 C   0  0  0  0  0  0  0  0  0  0  0  0
   26.5790   12.9060   29.0380 C   0  0  0  0  0  0  0  0  0  0  0  0
   25.6020   13.6060   29.7610 C   0  0  0  0  0  0  0  0  0  0  0  0
   25.2850   13.2590   31.1110 C   0  0  0  0  0  0  0  0  0  0  0  0
   24.2440   14.0730   31.6860 N   0  0  0  0  0  0  0  0  0  0  0  0
   24.5160   14.9930   32.5920 C   0  0  0  0  0  0  0  0  0  0  0  0
   25.6530   15.1500   33.0210 O   0  0  0  0  0  0  0  0  0  0  0  0
   23.4180   15.9110   33.0260 C   0  0  0  0  0  0  0  0  0  0  0  0
   23.7630   16.9690   33.8980 C   0  0  0  0  0  0  0  0  0  0  0  0
   22.8180   17.8960   34.2740 C   0  0  0  0  0  0  0  0  0  0  0  0
   23.2180   18.9970   35.1110 N   0  0  0  0  0  0  0  0  0  0  0  0
   23.7200   18.8390   36.4290 C   0  0  0  0  0  0  0  0  0  0  0  0
   24.1540   19.9420   37.0850 N   0  0  0  0  0  0  0  0  0  0  0  0
   24.6250   19.8550   38.3490 C   0  0  0  0  0  0  0  0  0  0  0  0
   24.6580   18.6020   38.9980 C   0  0  0  0  0  0  0  0  0  0  0  0
   24.2060   17.4800   38.2880 C   0  0  0  0  0  0  0  0  0  0  0  0
   23.7470   17.6250   37.0220 N   0  0  0  0  0  0  0  0  0  0  0  0
   21.4730   17.7830   33.7830 C   0  0  0  0  0  0  0  0  0  0  0  0
   20.5150   18.7550   34.1600 C   0  0  0  0  0  0  0  0  0  0  0  0
   19.1860   18.6620   33.6930 C   0  0  0  0  0  0  0  0  0  0  0  0
   18.8010   17.5980   32.8540 C   0  0  0  0  0  0  0  0  0  0  0  0
   19.7560   16.6250   32.4690 C   0  0  0  0  0  0  0  0  0  0  0  0
   21.1010   16.7220   32.9310 C   0  0  0  0  0  0  0  0  0  0  0  0
   22.0770   15.7770   32.5410 C   0  0  0  0  0  0  0  0  0  0  0  0
   18.2380   19.7150   34.1260 C   0  0  0  0  0  0  0  0  0  0  0  0
   18.6560   20.6930   34.8790 N   0  0  0  0  0  0  0  0  0  0  0  0
   16.9650   19.6770   33.7560 N   0  0  0  0  0  0  0  0  0  0  0  0
   25.9580   12.1980   31.7280 C   0  0  0  0  0  0  0  0  0  0  0  0
   26.9590   11.4880   30.9910 C   0  0  0  0  0  0  0  0  0  0  0  0
  2  1  1  0
  3  2  1  0
  4  3  2  0
 31  3  1  0
  5  4  1  0
  6  5  2  0
  7  6  1  0
 30  6  1  0
  8  7  1  0
  9  8  2  0
 10  8  1  0
 11 10  2  0
 26 10  1  0
 12 11  1  0
 13 12  1  0
 20 12  2  0
 14 13  1  0
 15 14  2  0
 19 14  1  0
 16 15  1  0
 17 16  2  0
 18 17  1  0
 19 18  2  0
 21 20  1  0
 25 20  1  0
 22 21  2  0
 23 22  1  0
 27 22  1  0
 24 23  2  0
 25 24  1  0
 26 25  2  0
 28 27  2  0
 29 27  1  0
 31 30  2  0
A    1
N1
A    2
C2
A    3
C3
A    4
C4
A    5
C5
A    6
C6
A    7
N7
A    8
C8
A    9
O9
A   10
C10
A   11
C11
A   12
C12
A   13
N13
A   14
C14
A   15
N15
A   16
C16
A   17
C17
A   18
C18
A   19
N19
A   20
C20
A   21
C21
A   22
C22
A   23
C23
A   24
C24
A   25
C25
A   26
C26
A   27
C27
A   28
N28
A   29
N29
A   30
C30
A   31
C31
M  END
>  <Id>  (4) 
1SQA_UI1_A_1001

>  <ChainId>  (4) 
A

>  <AsymId>  (4) 
E

>  <SeqNum>  (4) 
1001

>  <Name>  (4) 
6-[(Z)-AMINO(IMINO)METHYL]-N-[4-(AMINOMETHYL)PHENYL]-4-(PYRIMIDIN-2-YLAMINO)-2-NAPHTHAMIDE

>  <SystematicName>  (4) 
N-[4-(aminomethyl)phenyl]-6-carbamimidoyl-4-(pyrimidin-2-ylamino)naphthalene-2-carboxamide

>  <Synonyms>  (4) 


>  <Type>  (4) 
NON-POLYMER

>  <Formula>  (4) 
C23 H21 N7 O

>  <ObservedFormula>  (4) 
C23 N7 O

>  <MolecularWeight>  (4) 
411.459

>  <ModifiedDate>  (4) 
2011-06-04

>  <Parent>  (4) 


>  <OneLetterCode>  (4) 


>  <SubcomponentList>  (4) 


>  <AmbiguousFlag>  (4) 
N

>  <InsertionCode>  (4) 


>  <InstanceId>  (4) 
1SQA_UI1_A_1001

>  <ChemCompId>  (4) 
UI1

>  <PdbId>  (4) 
1SQA

>  <ResidueNumber>  (4) 
1001

>  <InChI>  (4) 
InChI=1S/C23H21N7O/c24-13-14-2-6-18(7-3-14)29-22(31)17-10-15-4-5-16(21(25)26)11-19(15)20(12-17)30-23-27-8-1-9-28-23/h1-12H,13,24H2,(H3,25,26)(H,29,31)(H,27,28,30)

>  <InChIKey>  (4) 
CSWQJKHBMACTGB-UHFFFAOYSA-N

>  <SMILES>  (4) 
c1cnc(nc1)Nc2cc(cc3c2cc(cc3)C(=N)N)C(=O)Nc4ccc(cc4)CN

>  <MissingHeavyAtoms>  (4) 
0

>  <Model>  (4) 
1

>  <AltIds>  (4) 


>  <pKI>  (4) 
9.2

>  <ChemblID>  (4) 
CHEMBL104166

>  <standardized_canonical_smiles>  (4) 
N=C(N)c1ccc2cc(C(=O)Nc3ccc(CN)cc3)cc(Nc3ncccn3)c2c1

$$$$
4FUD_6UP_A_301
     RDKit          3D

 14 15  0  0  0  0  0  0  0  0999 V2000
  -20.3710  -18.7890   -6.7130 C   0  0  0  0  0  0  0  0  0  0  0  0
  -21.2630  -17.7350   -6.9630 C   0  0  0  0  0  0  0  0  0  0  0  0
  -22.5690  -17.7200   -6.4280 C   0  0  0  0  0  0  0  0  0  0  0  0
  -22.9640  -18.7490   -5.6720 N   0  0  0  0  0  0  0  0  0  0  0  0
  -23.4460  -16.6660   -6.7050 C   0  0  0  0  0  0  0  0  0  0  0  0
  -23.0080  -15.6150   -7.5190 C   0  0  0  0  0  0  0  0  0  0  0  0
  -21.7250  -15.6230   -8.0730 C   0  0  0  0  0  0  0  0  0  0  0  0
  -20.8430  -16.6720   -7.7950 C   0  0  0  0  0  0  0  0  0  0  0  0
  -19.5510  -16.6540   -8.3360 C   0  0  0  0  0  0  0  0  0  0  0  0
  -18.6780  -17.7170   -8.0700 C   0  0  0  0  0  0  0  0  0  0  0  0
  -19.0850  -18.7970   -7.2630 C   0  0  0  0  0  0  0  0  0  0  0  0
  -18.1930  -19.8320   -6.9260 C   0  0  0  0  0  0  0  0  0  0  0  0
  -18.6710  -20.9670   -6.4000 N   0  0  0  0  0  0  0  0  0  0  0  0
  -16.8870  -19.5860   -6.9780 N   0  0  0  0  0  0  0  0  0  0  0  0
  2  1  2  0
 11  1  1  0
  3  2  1  0
  8  2  1  0
  4  3  1  0
  5  3  2  0
  6  5  1  0
  7  6  2  0
  8  7  1  0
  9  8  2  0
 10  9  1  0
 11 10  2  0
 12 11  1  0
 13 12  1  0
 14 12  2  0
A    1
CAI
A    2
CAN
A    3
CAL
A    4
N1
A    5
CAE
A    6
CAD
A    7
CAG
A    8
CAM
A    9
CAH
A   10
CAF
A   11
CAK
A   12
CAJ
A   13
N2
A   14
N3
M  END
>  <Id>  (5) 
4FUD_6UP_A_301

>  <ChainId>  (5) 
A

>  <AsymId>  (5) 
B

>  <SeqNum>  (5) 
301

>  <Name>  (5) 
8-aminonaphthalene-2-carboximidamide

>  <SystematicName>  (5) 
8-azanylnaphthalene-2-carboximidamide

>  <Synonyms>  (5) 


>  <Type>  (5) 
NON-POLYMER

>  <Formula>  (5) 
C11 H11 N3

>  <ObservedFormula>  (5) 
C11 N3

>  <MolecularWeight>  (5) 
185.225

>  <ModifiedDate>  (5) 
2012-08-17

>  <Parent>  (5) 


>  <OneLetterCode>  (5) 


>  <SubcomponentList>  (5) 


>  <AmbiguousFlag>  (5) 
N

>  <InsertionCode>  (5) 


>  <InstanceId>  (5) 
4FUD_6UP_A_301

>  <ChemCompId>  (5) 
6UP

>  <PdbId>  (5) 
4FUD

>  <ResidueNumber>  (5) 
301

>  <InChI>  (5) 
InChI=1S/C11H11N3/c12-10-3-1-2-7-4-5-8(11(13)14)6-9(7)10/h1-6H,12H2,(H3,13,14)

>  <InChIKey>  (5) 
JXOUQPJAWDJHOP-UHFFFAOYSA-N

>  <SMILES>  (5) 
[H]/N=C(\c1ccc2cccc(c2c1)N)/N

>  <MissingHeavyAtoms>  (5) 
0

>  <Model>  (5) 
1

>  <AltIds>  (5) 


>  <pKI>  (5) 
6.32

>  <ChemblID>  (5) 
CHEMBL319264

>  <standardized_canonical_smiles>  (5) 
N=C(N)c1ccc2cccc(N)c2c1

$$$$
4FU8_2UP_A_301
     RDKit          3D

 13 14  0  0  0  0  0  0  0  0999 V2000
  -20.4570  -18.7150   -6.6060 C   0  0  0  0  0  0  0  0  0  0  0  0
  -21.3590  -17.6860   -6.8940 C   0  0  0  0  0  0  0  0  0  0  0  0
  -22.6210  -17.6730   -6.2870 C   0  0  0  0  0  0  0  0  0  0  0  0
  -23.5190  -16.6420   -6.5770 C   0  0  0  0  0  0  0  0  0  0  0  0
  -23.1590  -15.6290   -7.4740 C   0  0  0  0  0  0  0  0  0  0  0  0
  -21.9020  -15.6430   -8.0900 C   0  0  0  0  0  0  0  0  0  0  0  0
  -20.9970  -16.6690   -7.7970 C   0  0  0  0  0  0  0  0  0  0  0  0
  -19.7360  -16.6880   -8.4050 C   0  0  0  0  0  0  0  0  0  0  0  0
  -18.8440  -17.7260   -8.1170 C   0  0  0  0  0  0  0  0  0  0  0  0
  -19.1960  -18.7470   -7.2180 C   0  0  0  0  0  0  0  0  0  0  0  0
  -18.2950  -19.7790   -6.9160 C   0  0  0  0  0  0  0  0  0  0  0  0
  -16.9850  -19.5540   -6.9030 N   0  0  0  0  0  0  0  0  0  0  0  0
  -18.7240  -21.0030   -6.6050 N   0  0  0  0  0  0  0  0  0  0  0  0
  2  1  2  0
 10  1  1  0
  3  2  1  0
  7  2  1  0
  4  3  2  0
  5  4  1  0
  6  5  2  0
  7  6  1  0
  8  7  2  0
  9  8  1  0
 10  9  2  0
 11 10  1  0
 12 11  2  0
 13 11  1  0
A    1
CAI
A    2
CAM
A    3
CAG
A    4
CAD
A    5
CAC
A    6
CAF
A    7
CAL
A    8
CAH
A    9
CAE
A   10
CAK
A   11
CAJ
A   12
NAB
A   13
NAA
M  END
>  <Id>  (6) 
4FU8_2UP_A_301

>  <ChainId>  (6) 
A

>  <AsymId>  (6) 
B

>  <SeqNum>  (6) 
301

>  <Name>  (6) 
naphthalene-2-carboximidamide

>  <SystematicName>  (6) 
naphthalene-2-carboximidamide

>  <Synonyms>  (6) 


>  <Type>  (6) 
NON-POLYMER

>  <Formula>  (6) 
C11 H10 N2

>  <ObservedFormula>  (6) 
C11 N2

>  <MolecularWeight>  (6) 
170.21

>  <ModifiedDate>  (6) 
2012-08-17

>  <Parent>  (6) 


>  <OneLetterCode>  (6) 


>  <SubcomponentList>  (6) 


>  <AmbiguousFlag>  (6) 
N

>  <InsertionCode>  (6) 


>  <InstanceId>  (6) 
4FU8_2UP_A_301

>  <ChemCompId>  (6) 
2UP

>  <PdbId>  (6) 
4FU8

>  <ResidueNumber>  (6) 
301

>  <InChI>  (6) 
InChI=1S/C11H10N2/c12-11(13)10-6-5-8-3-1-2-4-9(8)7-10/h1-7H,(H3,12,13)

>  <InChIKey>  (6) 
URXJHZXEUUFNKM-UHFFFAOYSA-N

>  <SMILES>  (6) 
[H]/N=C(\c1ccc2ccccc2c1)/N

>  <MissingHeavyAtoms>  (6) 
0

>  <Model>  (6) 
1

>  <AltIds>  (6) 


>  <pKI>  (6) 
5.22

>  <ChemblID>  (6) 
CHEMBL105171

>  <standardized_canonical_smiles>  (6) 
N=C(N)c1ccc2ccccc2c1

$$$$
4FUI_UI3_A_301
     RDKit          3D

 24 26  0  0  0  0  0  0  0  0999 V2000
   -4.6770  -15.3540    7.8800 C   0  0  0  0  0  0  0  0  0  0  0  0
   -5.9240  -15.5630    8.4360 C   0  0  0  0  0  0  0  0  0  0  0  0
   -6.7110  -16.7100    8.0950 C   0  0  0  0  0  0  0  0  0  0  0  0
   -6.2120  -17.6860    7.1660 C   0  0  0  0  0  0  0  0  0  0  0  0
   -4.8910  -17.4770    6.5940 C   0  0  0  0  0  0  0  0  0  0  0  0
   -4.1430  -16.3250    6.9460 C   0  0  0  0  0  0  0  0  0  0  0  0
   -8.0100  -16.8680    8.6710 C   0  0  0  0  0  0  0  0  0  0  0  0
   -8.8030  -17.9450    8.3370 C   0  0  0  0  0  0  0  0  0  0  0  0
   -8.3350  -18.9410    7.3940 C   0  0  0  0  0  0  0  0  0  0  0  0
   -7.0650  -18.8230    6.8280 C   0  0  0  0  0  0  0  0  0  0  0  0
   -9.2980  -20.0430    7.0000 C   0  0  0  0  0  0  0  0  0  0  0  0
   -8.7690  -21.2160    6.4630 N   0  0  0  0  0  0  0  0  0  0  0  0
  -10.5420  -19.8150    7.2050 N   0  0  0  0  0  0  0  0  0  0  0  0
   -2.8700  -16.1780    6.3480 O   0  0  0  0  0  0  0  0  0  0  0  0
   -1.8960  -15.2820    6.9000 C   0  0  0  0  0  0  0  0  0  0  0  0
   -4.2930  -18.4280    5.6980 C   0  0  0  0  0  0  0  0  0  0  0  0
   -3.8600  -18.1810    4.4190 C   0  0  0  0  0  0  0  0  0  0  0  0
   -3.3130  -19.3900    3.9470 N   0  0  0  0  0  0  0  0  0  0  0  0
   -3.4150  -20.3670    4.9130 N   0  0  0  0  0  0  0  0  0  0  0  0
   -4.0000  -19.8080    5.9730 C   0  0  0  0  0  0  0  0  0  0  0  0
   -2.5650  -19.7510    2.4720 S   0  0  0  0  0  0  0  0  0  0  0  0
   -1.1560  -19.7240    2.6870 O   0  0  0  0  0  0  0  0  0  0  0  0
   -3.1780  -20.9510    2.0580 O   0  0  0  0  0  0  0  0  0  0  0  0
   -3.0500  -18.4790    1.5090 C   0  0  0  0  0  0  0  0  0  0  0  0
  2  1  2  0
  6  1  1  0
  3  2  1  0
  4  3  2  0
  7  3  1  0
  5  4  1  0
 10  4  1  0
  6  5  2  0
 16  5  1  0
 14  6  1  0
  8  7  2  0
  9  8  1  0
 10  9  2  0
 11  9  1  0
 12 11  2  0
 13 11  1  0
 15 14  1  0
 17 16  2  0
 20 16  1  0
 18 17  1  0
 19 18  1  0
 21 18  1  0
 20 19  2  0
 22 21  2  0
 23 21  2  0
 24 21  1  0
A    1
C1
A    2
C2
A    3
C3
A    4
C4
A    5
C5
A    6
C6
A    7
C9
A    8
C10
A    9
C11
A   10
C12
A   11
C16
A   12
N17
A   13
N18
A   14
O19
A   15
C20
A   16
C24
A   17
C25
A   18
N26
A   19
N27
A   20
C28
A   21
S34
A   22
O35
A   23
O36
A   24
C37
M  END
>  <Id>  (7) 
4FUI_UI3_A_301

>  <ChainId>  (7) 
A

>  <AsymId>  (7) 
B

>  <SeqNum>  (7) 
301

>  <Name>  (7) 
7-METHOXY-8-[1-(METHYLSULFONYL)-1H-PYRAZOL-4-YL]NAPHTHALENE-2-CARBOXIMIDAMIDE

>  <SystematicName>  (7) 
7-methoxy-8-(1-methylsulfonylpyrazol-4-yl)naphthalene-2-carboximidamide

>  <Synonyms>  (7) 


>  <Type>  (7) 
NON-POLYMER

>  <Formula>  (7) 
C16 H16 N4 O3 S

>  <ObservedFormula>  (7) 
C16 S N4 O3

>  <MolecularWeight>  (7) 
344.388

>  <ModifiedDate>  (7) 
2011-06-04

>  <Parent>  (7) 


>  <OneLetterCode>  (7) 


>  <SubcomponentList>  (7) 


>  <AmbiguousFlag>  (7) 
N

>  <InsertionCode>  (7) 


>  <InstanceId>  (7) 
4FUI_UI3_A_301

>  <ChemCompId>  (7) 
UI3

>  <PdbId>  (7) 
4FUI

>  <ResidueNumber>  (7) 
301

>  <InChI>  (7) 
InChI=1S/C16H16N4O3S/c1-23-14-6-5-10-3-4-11(16(17)18)7-13(10)15(14)12-8-19-20(9-12)24(2,21)22/h3-9H,1-2H3,(H3,17,18)

>  <InChIKey>  (7) 
KQUXAFOLFXHVQN-UHFFFAOYSA-N

>  <SMILES>  (7) 
[H]/N=C(/c1ccc2ccc(c(c2c1)c3cnn(c3)S(=O)(=O)C)OC)\N

>  <MissingHeavyAtoms>  (7) 
0

>  <Model>  (7) 
1

>  <AltIds>  (7) 


>  <pKI>  (7) 
6.2

>  <ChemblID>  (7) 
CHEMBL321944

>  <standardized_canonical_smiles>  (7) 
COc1ccc2ccc(C(=N)N)cc2c1-c1cnn(S(C)(=O)=O)c1

$$$$
1SQT_UI3_A_1001
     RDKit          3D

 24 26  0  0  0  0  0  0  0  0999 V2000
   22.8630   15.2860   32.9690 C   0  0  0  0  0  0  0  0  0  0  0  0
   21.6050   15.5170   32.3500 C   0  0  0  0  0  0  0  0  0  0  0  0
   20.8180   16.6100   32.7350 C   0  0  0  0  0  0  0  0  0  0  0  0
   21.2960   17.5270   33.7420 C   0  0  0  0  0  0  0  0  0  0  0  0
   22.5690   17.3060   34.3480 C   0  0  0  0  0  0  0  0  0  0  0  0
   23.3240   16.1860   33.9870 C   0  0  0  0  0  0  0  0  0  0  0  0
   19.5460   16.7560   32.1380 C   0  0  0  0  0  0  0  0  0  0  0  0
   18.7320   17.7980   32.5450 C   0  0  0  0  0  0  0  0  0  0  0  0
   19.1780   18.6980   33.5390 C   0  0  0  0  0  0  0  0  0  0  0  0
   20.4510   18.5740   34.1440 C   0  0  0  0  0  0  0  0  0  0  0  0
   18.3140   19.7900   33.9540 C   0  0  0  0  0  0  0  0  0  0  0  0
   16.9780   19.7470   33.6840 N   0  0  0  0  0  0  0  0  0  0  0  0
   18.7730   20.8310   34.5960 N   0  0  0  0  0  0  0  0  0  0  0  0
   24.5530   16.0550   34.7060 O   0  0  0  0  0  0  0  0  0  0  0  0
   25.5590   15.1380   34.2870 C   0  0  0  0  0  0  0  0  0  0  0  0
   23.2310   18.2790   35.2620 C   0  0  0  0  0  0  0  0  0  0  0  0
   23.8430   17.9820   36.4130 C   0  0  0  0  0  0  0  0  0  0  0  0
   23.9820   19.2160   37.2050 N   0  0  0  0  0  0  0  0  0  0  0  0
   24.1440   20.1530   36.0980 N   0  0  0  0  0  0  0  0  0  0  0  0
   23.3510   19.7130   35.0840 C   0  0  0  0  0  0  0  0  0  0  0  0
   24.9760   19.1860   38.6680 S   0  0  0  0  0  0  0  0  0  0  0  0
   24.8390   20.5130   39.2400 O   0  0  0  0  0  0  0  0  0  0  0  0
   26.2700   18.8100   38.1540 O   0  0  0  0  0  0  0  0  0  0  0  0
   24.4350   17.8920   39.7690 C   0  0  0  0  0  0  0  0  0  0  0  0
  2  1  2  0
  6  1  1  0
  3  2  1  0
  4  3  2  0
  7  3  1  0
  5  4  1  0
 10  4  1  0
  6  5  2  0
 16  5  1  0
 14  6  1  0
  8  7  2  0
  9  8  1  0
 10  9  2  0
 11  9  1  0
 12 11  2  0
 13 11  1  0
 15 14  1  0
 17 16  2  0
 20 16  1  0
 18 17  1  0
 19 18  1  0
 21 18  1  0
 20 19  2  0
 22 21  2  0
 23 21  2  0
 24 21  1  0
A    1
C1
A    2
C2
A    3
C3
A    4
C4
A    5
C5
A    6
C6
A    7
C9
A    8
C10
A    9
C11
A   10
C12
A   11
C16
A   12
N17
A   13
N18
A   14
O19
A   15
C20
A   16
C24
A   17
C25
A   18
N26
A   19
N27
A   20
C28
A   21
S34
A   22
O35
A   23
O36
A   24
C37
M  END
>  <Id>  (8) 
1SQT_UI3_A_1001

>  <ChainId>  (8) 
A

>  <AsymId>  (8) 
B

>  <SeqNum>  (8) 
1001

>  <Name>  (8) 
7-METHOXY-8-[1-(METHYLSULFONYL)-1H-PYRAZOL-4-YL]NAPHTHALENE-2-CARBOXIMIDAMIDE

>  <SystematicName>  (8) 
7-methoxy-8-(1-methylsulfonylpyrazol-4-yl)naphthalene-2-carboximidamide

>  <Synonyms>  (8) 


>  <Type>  (8) 
NON-POLYMER

>  <Formula>  (8) 
C16 H16 N4 O3 S

>  <ObservedFormula>  (8) 
C16 S N4 O3

>  <MolecularWeight>  (8) 
344.388

>  <ModifiedDate>  (8) 
2011-06-04

>  <Parent>  (8) 


>  <OneLetterCode>  (8) 


>  <SubcomponentList>  (8) 


>  <AmbiguousFlag>  (8) 
N

>  <InsertionCode>  (8) 


>  <InstanceId>  (8) 
1SQT_UI3_A_1001

>  <ChemCompId>  (8) 
UI3

>  <PdbId>  (8) 
1SQT

>  <ResidueNumber>  (8) 
1001

>  <InChI>  (8) 
InChI=1S/C16H16N4O3S/c1-23-14-6-5-10-3-4-11(16(17)18)7-13(10)15(14)12-8-19-20(9-12)24(2,21)22/h3-9H,1-2H3,(H3,17,18)

>  <InChIKey>  (8) 
KQUXAFOLFXHVQN-UHFFFAOYSA-N

>  <SMILES>  (8) 
[H]/N=C(/c1ccc2ccc(c(c2c1)c3cnn(c3)S(=O)(=O)C)OC)\N

>  <MissingHeavyAtoms>  (8) 
0

>  <Model>  (8) 
1

>  <AltIds>  (8) 


>  <pKI>  (8) 
6.2

>  <ChemblID>  (8) 
CHEMBL321944

>  <standardized_canonical_smiles>  (8) 
COc1ccc2ccc(C(=N)N)cc2c1-c1cnn(S(C)(=O)=O)c1

$$$$
4FU9_675_A_313
     RDKit          3D

 22 24  0  0  0  0  0  0  0  0999 V2000
  -10.5770  -19.3560    7.2410 N   0  0  0  0  0  0  0  0  0  0  0  0
   -9.3260  -19.5480    7.0030 C   0  0  0  0  0  0  0  0  0  0  0  0
   -8.8520  -20.7250    6.5270 N   0  0  0  0  0  0  0  0  0  0  0  0
   -8.3100  -18.4400    7.3550 C   0  0  0  0  0  0  0  0  0  0  0  0
   -8.6540  -17.4000    8.3090 C   0  0  0  0  0  0  0  0  0  0  0  0
   -7.7500  -16.4000    8.6200 C   0  0  0  0  0  0  0  0  0  0  0  0
   -6.4540  -16.4020    8.0560 C   0  0  0  0  0  0  0  0  0  0  0  0
   -5.5060  -15.4210    8.4270 C   0  0  0  0  0  0  0  0  0  0  0  0
   -4.2700  -15.4350    7.8310 C   0  0  0  0  0  0  0  0  0  0  0  0
   -3.9030  -16.4230    6.8700 C   0  0  0  0  0  0  0  0  0  0  0  0
   -4.8040  -17.4020    6.5160 C   0  0  0  0  0  0  0  0  0  0  0  0
   -6.1010  -17.4120    7.1110 C   0  0  0  0  0  0  0  0  0  0  0  0
   -7.0440  -18.4150    6.7740 C   0  0  0  0  0  0  0  0  0  0  0  0
   -3.2060  -14.4370    8.1730 C   0  0  0  0  0  0  0  0  0  0  0  0
   -2.4420  -14.0310    7.3010 O   0  0  0  0  0  0  0  0  0  0  0  0
   -3.1290  -14.0740    9.5060 N   0  0  0  0  0  0  0  0  0  0  0  0
   -2.1730  -13.1950   10.0900 C   0  0  0  0  0  0  0  0  0  0  0  0
   -1.7390  -13.4340   11.4070 C   0  0  0  0  0  0  0  0  0  0  0  0
   -0.7540  -12.6010   11.9590 C   0  0  0  0  0  0  0  0  0  0  0  0
   -0.2090  -11.5690   11.2000 C   0  0  0  0  0  0  0  0  0  0  0  0
   -0.6370  -11.3450    9.8940 C   0  0  0  0  0  0  0  0  0  0  0  0
   -1.6260  -12.1310    9.3370 C   0  0  0  0  0  0  0  0  0  0  0  0
  2  1  2  0
  3  2  1  0
  4  2  1  0
  5  4  2  0
 13  4  1  0
  6  5  1  0
  7  6  2  0
  8  7  1  0
 12  7  1  0
  9  8  2  0
 10  9  1  0
 14  9  1  0
 11 10  2  0
 12 11  1  0
 13 12  2  0
 15 14  2  0
 16 14  1  0
 17 16  1  0
 18 17  2  0
 22 17  1  0
 19 18  1  0
 20 19  2  0
 21 20  1  0
 22 21  2  0
A    1
N18
A    2
C17
A    3
N19
A    4
C12
A    5
C11
A    6
C10
A    7
C2
A    8
C1
A    9
C6
A   10
C5
A   11
C4
A   12
C3
A   13
C13
A   14
C23
A   15
O36
A   16
N24
A   17
C25
A   18
C30
A   19
C29
A   20
C28
A   21
C27
A   22
C26
M  END
>  <Id>  (9) 
4FU9_675_A_313

>  <ChainId>  (9) 
A

>  <AsymId>  (9) 
N

>  <SeqNum>  (9) 
313

>  <Name>  (9) 
6-[(Z)-AMINO(IMINO)METHYL]-N-PHENYL-2-NAPHTHAMIDE

>  <SystematicName>  (9) 
6-carbamimidoyl-N-phenyl-naphthalene-2-carboxamide

>  <Synonyms>  (9) 
6-(N-PHENYLCARBAMYL)-2-NAPHTHALENECARBOXAMIDINE

>  <Type>  (9) 
NON-POLYMER

>  <Formula>  (9) 
C18 H15 N3 O

>  <ObservedFormula>  (9) 
C18 N3 O

>  <MolecularWeight>  (9) 
289.331

>  <ModifiedDate>  (9) 
2011-06-04

>  <Parent>  (9) 


>  <OneLetterCode>  (9) 


>  <SubcomponentList>  (9) 


>  <AmbiguousFlag>  (9) 
N

>  <InsertionCode>  (9) 


>  <InstanceId>  (9) 
4FU9_675_A_313

>  <ChemCompId>  (9) 
675

>  <PdbId>  (9) 
4FU9

>  <ResidueNumber>  (9) 
313

>  <InChI>  (9) 
InChI=1S/C18H15N3O/c19-17(20)14-8-6-13-11-15(9-7-12(13)10-14)18(22)21-16-4-2-1-3-5-16/h1-11H,(H3,19,20)(H,21,22)

>  <InChIKey>  (9) 
AECPTICWHONWNW-UHFFFAOYSA-N

>  <SMILES>  (9) 
[H]/N=C(/c1ccc2cc(ccc2c1)C(=O)Nc3ccccc3)\N

>  <MissingHeavyAtoms>  (9) 
0

>  <Model>  (9) 
1

>  <AltIds>  (9) 


>  <pKI>  (9) 
6.12

>  <ChemblID>  (9) 
CHEMBL104937

>  <standardized_canonical_smiles>  (9) 
N=C(N)c1ccc2cc(C(=O)Nc3ccccc3)ccc2c1

$$$$
1OWE_675_A_1001
     RDKit          3D

 22 24  0  0  0  0  0  0  0  0999 V2000
   16.9100   19.4810   33.7500 N   0  0  0  0  0  0  0  0  0  0  0  0
   18.2190   19.7910   33.9580 C   0  0  0  0  0  0  0  0  0  0  0  0
   18.6640   20.9890   34.4480 N   0  0  0  0  0  0  0  0  0  0  0  0
   19.1860   18.7150   33.5770 C   0  0  0  0  0  0  0  0  0  0  0  0
   18.9160   17.6690   32.6200 C   0  0  0  0  0  0  0  0  0  0  0  0
   19.7700   16.5850   32.2740 C   0  0  0  0  0  0  0  0  0  0  0  0
   21.0350   16.5470   32.9080 C   0  0  0  0  0  0  0  0  0  0  0  0
   21.9800   15.5860   32.5700 C   0  0  0  0  0  0  0  0  0  0  0  0
   23.3190   15.5600   33.1020 C   0  0  0  0  0  0  0  0  0  0  0  0
   23.5420   16.6870   34.0250 C   0  0  0  0  0  0  0  0  0  0  0  0
   22.6570   17.6790   34.3910 C   0  0  0  0  0  0  0  0  0  0  0  0
   21.4130   17.5940   33.8380 C   0  0  0  0  0  0  0  0  0  0  0  0
   20.5120   18.5880   34.1190 C   0  0  0  0  0  0  0  0  0  0  0  0
   24.3420   14.5750   32.7800 C   0  0  0  0  0  0  0  0  0  0  0  0
   25.1790   14.3330   33.6420 O   0  0  0  0  0  0  0  0  0  0  0  0
   24.3970   14.1850   31.4660 N   0  0  0  0  0  0  0  0  0  0  0  0
   25.3720   13.3340   30.9910 C   0  0  0  0  0  0  0  0  0  0  0  0
   25.8210   13.7000   29.7180 C   0  0  0  0  0  0  0  0  0  0  0  0
   26.7490   12.8940   29.0580 C   0  0  0  0  0  0  0  0  0  0  0  0
   27.2650   11.7530   29.7480 C   0  0  0  0  0  0  0  0  0  0  0  0
   26.9000   11.4270   31.0520 C   0  0  0  0  0  0  0  0  0  0  0  0
   25.9430   12.2340   31.6880 C   0  0  0  0  0  0  0  0  0  0  0  0
  2  1  2  0
  3  2  1  0
  4  2  1  0
  5  4  2  0
 13  4  1  0
  6  5  1  0
  7  6  2  0
  8  7  1  0
 12  7  1  0
  9  8  2  0
 10  9  1  0
 14  9  1  0
 11 10  2  0
 12 11  1  0
 13 12  2  0
 15 14  2  0
 16 14  1  0
 17 16  1  0
 18 17  2  0
 22 17  1  0
 19 18  1  0
 20 19  2  0
 21 20  1  0
 22 21  2  0
A    1
N18
A    2
C17
A    3
N19
A    4
C12
A    5
C11
A    6
C10
A    7
C2
A    8
C1
A    9
C6
A   10
C5
A   11
C4
A   12
C3
A   13
C13
A   14
C23
A   15
O36
A   16
N24
A   17
C25
A   18
C30
A   19
C29
A   20
C28
A   21
C27
A   22
C26
M  END
>  <Id>  (10) 
1OWE_675_A_1001

>  <ChainId>  (10) 
A

>  <AsymId>  (10) 
E

>  <SeqNum>  (10) 
1001

>  <Name>  (10) 
6-[(Z)-AMINO(IMINO)METHYL]-N-PHENYL-2-NAPHTHAMIDE

>  <SystematicName>  (10) 
6-carbamimidoyl-N-phenyl-naphthalene-2-carboxamide

>  <Synonyms>  (10) 
6-(N-PHENYLCARBAMYL)-2-NAPHTHALENECARBOXAMIDINE

>  <Type>  (10) 
NON-POLYMER

>  <Formula>  (10) 
C18 H15 N3 O

>  <ObservedFormula>  (10) 
C18 N3 O

>  <MolecularWeight>  (10) 
289.331

>  <ModifiedDate>  (10) 
2011-06-04

>  <Parent>  (10) 


>  <OneLetterCode>  (10) 


>  <SubcomponentList>  (10) 


>  <AmbiguousFlag>  (10) 
N

>  <InsertionCode>  (10) 


>  <InstanceId>  (10) 
1OWE_675_A_1001

>  <ChemCompId>  (10) 
675

>  <PdbId>  (10) 
1OWE

>  <ResidueNumber>  (10) 
1001

>  <InChI>  (10) 
InChI=1S/C18H15N3O/c19-17(20)14-8-6-13-11-15(9-7-12(13)10-14)18(22)21-16-4-2-1-3-5-16/h1-11H,(H3,19,20)(H,21,22)

>  <InChIKey>  (10) 
AECPTICWHONWNW-UHFFFAOYSA-N

>  <SMILES>  (10) 
[H]/N=C(/c1ccc2cc(ccc2c1)C(=O)Nc3ccccc3)\N

>  <MissingHeavyAtoms>  (10) 
0

>  <Model>  (10) 
1

>  <AltIds>  (10) 


>  <pKI>  (10) 
6.12

>  <ChemblID>  (10) 
CHEMBL104937

>  <standardized_canonical_smiles>  (10) 
N=C(N)c1ccc2cc(C(=O)Nc3ccccc3)ccc2c1

$$$$
1OWD_497_A_1001
     RDKit          3D

 28 31  0  0  0  0  0  0  0  0999 V2000
   29.9610   10.5100   33.5110 C   0  0  0  0  0  0  0  0  0  0  0  0
   28.5190   10.8440   33.1590 C   0  0  0  0  0  0  0  0  0  0  0  0
   28.3610   10.9620   31.6530 C   0  0  0  0  0  0  0  0  0  0  0  0
   28.8240    9.8200   30.7370 C   0  0  0  0  0  0  0  0  0  0  0  0
   29.2180   10.4030   29.4480 N   0  0  0  0  0  0  0  0  0  0  0  0
   28.2460   11.2590   28.7480 C   0  0  0  0  0  0  0  0  0  0  0  0
   27.3310   12.0620   29.6560 C   0  0  0  0  0  0  0  0  0  0  0  0
   27.2540   11.7970   31.0550 C   0  0  0  0  0  0  0  0  0  0  0  0
   26.1890   12.3400   31.8040 C   0  0  0  0  0  0  0  0  0  0  0  0
   25.3520   13.3140   31.2130 C   0  0  0  0  0  0  0  0  0  0  0  0
   24.2760   13.8910   31.8340 N   0  0  0  0  0  0  0  0  0  0  0  0
   24.3750   14.6380   32.9380 C   0  0  0  0  0  0  0  0  0  0  0  0
   25.3290   14.4670   33.6600 O   0  0  0  0  0  0  0  0  0  0  0  0
   23.3220   15.6590   33.2280 C   0  0  0  0  0  0  0  0  0  0  0  0
   23.6510   16.7190   34.1180 C   0  0  0  0  0  0  0  0  0  0  0  0
   22.7050   17.6950   34.4790 C   0  0  0  0  0  0  0  0  0  0  0  0
   21.4010   17.6640   33.9270 C   0  0  0  0  0  0  0  0  0  0  0  0
   20.4950   18.7210   34.1490 C   0  0  0  0  0  0  0  0  0  0  0  0
   19.2050   18.7230   33.5720 C   0  0  0  0  0  0  0  0  0  0  0  0
   18.8770   17.7140   32.6360 C   0  0  0  0  0  0  0  0  0  0  0  0
   19.7930   16.6790   32.3730 C   0  0  0  0  0  0  0  0  0  0  0  0
   21.0590   16.6360   33.0030 C   0  0  0  0  0  0  0  0  0  0  0  0
   22.0140   15.6320   32.6690 C   0  0  0  0  0  0  0  0  0  0  0  0
   18.2110   19.7350   33.9890 C   0  0  0  0  0  0  0  0  0  0  0  0
   18.5880   20.9290   34.4080 N   0  0  0  0  0  0  0  0  0  0  0  0
   16.9240   19.4960   33.9780 N   0  0  0  0  0  0  0  0  0  0  0  0
   25.6060   13.7230   29.8970 C   0  0  0  0  0  0  0  0  0  0  0  0
   26.5440   13.0830   29.0890 C   0  0  0  0  0  0  0  0  0  0  0  0
  2  1  1  0
  3  2  1  0
  4  3  1  0
  8  3  1  0
  5  4  1  0
  6  5  1  0
  7  6  1  0
  8  7  2  0
 28  7  1  0
  9  8  1  0
 10  9  2  0
 11 10  1  0
 27 10  1  0
 12 11  1  0
 13 12  2  0
 14 12  1  0
 15 14  2  0
 23 14  1  0
 16 15  1  0
 17 16  2  0
 18 17  1  0
 22 17  1  0
 19 18  2  0
 20 19  1  0
 24 19  1  0
 21 20  2  0
 22 21  1  0
 23 22  2  0
 25 24  1  0
 26 24  2  0
 28 27  2  0
A    1
C47
A    2
C45
A    3
C39
A    4
C38
A    5
N37
A    6
C36
A    7
C26
A    8
C27
A    9
C28
A   10
C22
A   11
N21
A   12
C20
A   13
O23
A   14
C11
A   15
C12
A   16
C13
A   17
C4
A   18
C5
A   19
C6
A   20
C1
A   21
C2
A   22
C3
A   23
C10
A   24
C17
A   25
N18
A   26
N19
A   27
C24
A   28
C25
M  END
>  <Id>  (11) 
1OWD_497_A_1001

>  <ChainId>  (11) 
A

>  <AsymId>  (11) 
B

>  <SeqNum>  (11) 
1001

>  <Name>  (11) 
6-[AMINO(IMINO)METHYL]-N-[(4R)-4-ETHYL-1,2,3,4-TETRAHYDROISOQUINOLIN-6-YL]-2-NAPHTHAMIDE

>  <SystematicName>  (11) 
6-carbamimidoyl-N-[(4R)-4-ethyl-1,2,3,4-tetrahydroisoquinolin-6-yl]naphthalene-2-carboxamide

>  <Synonyms>  (11) 
6-[N-(4-ETHYL-1,2,3,4-TETRAHYDRO-6-ISOQUINOLINYL)CARBAMYL]-2-NAPHTHALENECARBOXAMIDINE

>  <Type>  (11) 
NON-POLYMER

>  <Formula>  (11) 
C23 H24 N4 O

>  <ObservedFormula>  (11) 
C23 N4 O

>  <MolecularWeight>  (11) 
372.463

>  <ModifiedDate>  (11) 
2011-06-04

>  <Parent>  (11) 


>  <OneLetterCode>  (11) 


>  <SubcomponentList>  (11) 


>  <AmbiguousFlag>  (11) 
N

>  <InsertionCode>  (11) 


>  <InstanceId>  (11) 
1OWD_497_A_1001

>  <ChemCompId>  (11) 
497

>  <PdbId>  (11) 
1OWD

>  <ResidueNumber>  (11) 
1001

>  <InChI>  (11) 
InChI=1S/C23H24N4O/c1-2-14-12-26-13-19-7-8-20(11-21(14)19)27-23(28)18-6-4-15-9-17(22(24)25)5-3-16(15)10-18/h3-11,14,26H,2,12-13H2,1H3,(H3,24,25)(H,27,28)/t14-/m0/s1

>  <InChIKey>  (11) 
LVNMYQLXKMSQTG-AWEZNQCLSA-N

>  <SMILES>  (11) 
CC[C@H]1CNCc2c1cc(cc2)NC(=O)c3ccc4cc(ccc4c3)C(=N)N

>  <MissingHeavyAtoms>  (11) 
0

>  <Model>  (11) 
1

>  <AltIds>  (11) 


>  <pKI>  (11) 
8.2

>  <ChemblID>  (11) 
CHEMBL108447

>  <standardized_canonical_smiles>  (11) 
CCC1CNCc2ccc(NC(=O)c3ccc4cc(C(=N)N)ccc4c3)cc21

$$$$
1OWJ_155_A_245
     RDKit          3D

 29 32  0  0  0  0  0  0  0  0999 V2000
   16.9940   19.3640   33.9700 N   0  0  0  0  0  0  0  0  0  0  0  0
   18.3390   19.5220   33.8470 C   0  0  0  0  0  0  0  0  0  0  0  0
   18.8700   20.7450   34.0460 N   0  0  0  0  0  0  0  0  0  0  0  0
   19.2140   18.3740   33.5180 C   0  0  0  0  0  0  0  0  0  0  0  0
   20.5230   18.4320   34.0230 C   0  0  0  0  0  0  0  0  0  0  0  0
   21.4790   17.4170   33.7980 C   0  0  0  0  0  0  0  0  0  0  0  0
   22.8110   17.6010   34.2710 C   0  0  0  0  0  0  0  0  0  0  0  0
   23.8200   16.6450   33.9990 C   0  0  0  0  0  0  0  0  0  0  0  0
   23.5200   15.4740   33.2540 C   0  0  0  0  0  0  0  0  0  0  0  0
   22.1640   15.2740   32.7570 C   0  0  0  0  0  0  0  0  0  0  0  0
   21.1230   16.2440   33.0190 C   0  0  0  0  0  0  0  0  0  0  0  0
   19.7810   16.1780   32.5020 C   0  0  0  0  0  0  0  0  0  0  0  0
   18.8270   17.2240   32.7360 C   0  0  0  0  0  0  0  0  0  0  0  0
   24.6030   14.5240   33.1280 C   0  0  0  0  0  0  0  0  0  0  0  0
   25.6470   14.5040   33.7740 O   0  0  0  0  0  0  0  0  0  0  0  0
   24.3870   13.6500   32.2380 N   0  0  0  0  0  0  0  0  0  0  0  0
   25.4120   13.3340   31.4890 C   0  0  0  0  0  0  0  0  0  0  0  0
   26.2970   12.3250   31.8630 C   0  0  0  0  0  0  0  0  0  0  0  0
   27.1750   11.8500   30.8780 C   0  0  0  0  0  0  0  0  0  0  0  0
   27.2290   12.4480   29.5920 C   0  0  0  0  0  0  0  0  0  0  0  0
   26.4010   13.5300   29.2700 C   0  0  0  0  0  0  0  0  0  0  0  0
   25.4790   13.9600   30.2360 C   0  0  0  0  0  0  0  0  0  0  0  0
   28.1780   11.8880   28.5710 C   0  0  0  0  0  0  0  0  0  0  0  0
   28.3580   10.3340   28.6940 C   0  0  0  0  0  0  0  0  0  0  0  0
   28.5270    9.9480   30.0860 N   0  0  0  0  0  0  0  0  0  0  0  0
   27.9770   10.6620   31.1000 C   0  0  0  0  0  0  0  0  0  0  0  0
   28.1660   10.1520   32.4700 C   0  0  0  0  0  0  0  0  0  0  0  0
   29.5320   10.6490   32.9620 C   0  0  0  0  0  0  0  0  0  0  0  0
   27.8690    8.6460   32.3810 C   0  0  0  0  0  0  0  0  0  0  0  0
  2  1  2  0
  3  2  1  0
  4  2  1  0
  5  4  2  0
 13  4  1  0
  6  5  1  0
  7  6  2  0
 11  6  1  0
  8  7  1  0
  9  8  2  0
 10  9  1  0
 14  9  1  0
 11 10  2  0
 12 11  1  0
 13 12  2  0
 15 14  2  0
 16 14  1  0
 17 16  1  0
 18 17  2  0
 22 17  1  0
 19 18  1  0
 20 19  2  0
 26 19  1  0
 21 20  1  0
 23 20  1  0
 22 21  2  0
 24 23  1  0
 25 24  1  0
 26 25  2  0
 27 26  1  0
 28 27  1  0
 29 27  1  0
A    1
N18
A    2
C17
A    3
N19
A    4
C12
A    5
C13
A    6
C4
A    7
C5
A    8
C6
A    9
C1
A   10
C2
A   11
C3
A   12
C10
A   13
C11
A   14
C20
A   15
O21
A   16
N22
A   17
C23
A   18
C28
A   19
C27
A   20
C26
A   21
C25
A   22
C24
A   23
C32
A   24
C33
A   25
N34
A   26
C35
A   27
C40
A   28
C41
A   29
C45
M  END
>  <Id>  (12) 
1OWJ_155_A_245

>  <ChainId>  (12) 
A

>  <AsymId>  (12) 
B

>  <SeqNum>  (12) 
245

>  <Name>  (12) 
6-[(Z)-AMINO(IMINO)METHYL]-N-(1-ISOPROPYL-3,4-DIHYDROISOQUINOLIN-7-YL)-2-NAPHTHAMIDE

>  <SystematicName>  (12) 
6-carbamimidoyl-N-(1-propan-2-yl-3,4-dihydroisoquinolin-7-yl)naphthalene-2-carboxamide

>  <Synonyms>  (12) 
6-[N-(1-ISOPROPYL-3,4-DIHYDRO-7-ISOQUINOLINYL)CARBAMYL]-2-NAPHTHALENECARBOXAMIDINE

>  <Type>  (12) 
NON-POLYMER

>  <Formula>  (12) 
C24 H24 N4 O

>  <ObservedFormula>  (12) 
C24 N4 O

>  <MolecularWeight>  (12) 
384.474

>  <ModifiedDate>  (12) 
2011-06-04

>  <Parent>  (12) 


>  <OneLetterCode>  (12) 


>  <SubcomponentList>  (12) 


>  <AmbiguousFlag>  (12) 
N

>  <InsertionCode>  (12) 


>  <InstanceId>  (12) 
1OWJ_155_A_245

>  <ChemCompId>  (12) 
155

>  <PdbId>  (12) 
1OWJ

>  <ResidueNumber>  (12) 
245

>  <InChI>  (12) 
InChI=1S/C24H24N4O/c1-14(2)22-21-13-20(8-7-15(21)9-10-27-22)28-24(29)19-6-4-16-11-18(23(25)26)5-3-17(16)12-19/h3-8,11-14H,9-10H2,1-2H3,(H3,25,26)(H,28,29)

>  <InChIKey>  (12) 
XRHANBWAKSYPEN-UHFFFAOYSA-N

>  <SMILES>  (12) 
CC(C)C1=NCCc2c1cc(cc2)NC(=O)c3ccc4cc(ccc4c3)C(=N)N

>  <MissingHeavyAtoms>  (12) 
0

>  <Model>  (12) 
1

>  <AltIds>  (12) 


>  <pKI>  (12) 
7.31

>  <ChemblID>  (12) 
CHEMBL109367

>  <standardized_canonical_smiles>  (12) 
CC(C)C1=NCCc2ccc(NC(=O)c3ccc4cc(C(=N)N)ccc4c3)cc21

$$$$
1OWI_426_A_245
     RDKit          3D

 28 31  0  0  0  0  0  0  0  0999 V2000
   17.1460   19.5630   34.0330 N   0  0  0  0  0  0  0  0  0  0  0  0
   18.4370   19.6740   34.0900 C   0  0  0  0  0  0  0  0  0  0  0  0
   18.9670   20.8550   34.4390 N   0  0  0  0  0  0  0  0  0  0  0  0
   19.2930   18.5410   33.7320 C   0  0  0  0  0  0  0  0  0  0  0  0
   20.6190   18.5020   34.2910 C   0  0  0  0  0  0  0  0  0  0  0  0
   21.5790   17.5160   33.9250 C   0  0  0  0  0  0  0  0  0  0  0  0
   22.8780   17.5500   34.5090 C   0  0  0  0  0  0  0  0  0  0  0  0
   23.8840   16.6040   34.1530 C   0  0  0  0  0  0  0  0  0  0  0  0
   23.6000   15.5920   33.1820 C   0  0  0  0  0  0  0  0  0  0  0  0
   22.2620   15.5510   32.5840 C   0  0  0  0  0  0  0  0  0  0  0  0
   21.2320   16.4980   32.9410 C   0  0  0  0  0  0  0  0  0  0  0  0
   19.8860   16.5220   32.3900 C   0  0  0  0  0  0  0  0  0  0  0  0
   18.9060   17.5200   32.7710 C   0  0  0  0  0  0  0  0  0  0  0  0
   24.7200   14.6820   32.8550 C   0  0  0  0  0  0  0  0  0  0  0  0
   25.6970   14.5930   33.5810 O   0  0  0  0  0  0  0  0  0  0  0  0
   24.6130   13.9590   31.6980 N   0  0  0  0  0  0  0  0  0  0  0  0
   25.5790   13.1240   31.1960 C   0  0  0  0  0  0  0  0  0  0  0  0
   25.9280   11.9100   31.8250 C   0  0  0  0  0  0  0  0  0  0  0  0
   26.9330   11.0850   31.2780 C   0  0  0  0  0  0  0  0  0  0  0  0
   27.5790   11.4640   30.0960 C   0  0  0  0  0  0  0  0  0  0  0  0
   27.2350   12.6810   29.4580 C   0  0  0  0  0  0  0  0  0  0  0  0
   27.8420   13.2250   28.3150 O   0  0  0  0  0  0  0  0  0  0  0  0
   28.5880   12.3390   27.4780 C   0  0  0  0  0  0  0  0  0  0  0  0
   27.8360   12.1370   26.1280 C   0  0  0  0  0  0  0  0  0  0  0  0
   28.6730   12.8340   25.0470 C   0  0  0  0  0  0  0  0  0  0  0  0
   29.9700   13.3800   25.7140 C   0  0  0  0  0  0  0  0  0  0  0  0
   29.9990   12.9220   27.1930 C   0  0  0  0  0  0  0  0  0  0  0  0
   26.2310   13.4860   30.0120 C   0  0  0  0  0  0  0  0  0  0  0  0
  2  1  2  0
  3  2  1  0
  4  2  1  0
  5  4  2  0
 13  4  1  0
  6  5  1  0
  7  6  2  0
 11  6  1  0
  8  7  1  0
  9  8  2  0
 10  9  1  0
 14  9  1  0
 11 10  2  0
 12 11  1  0
 13 12  2  0
 15 14  2  0
 16 14  1  0
 17 16  1  0
 18 17  2  0
 28 17  1  0
 19 18  1  0
 20 19  2  0
 21 20  1  0
 22 21  1  0
 28 21  2  0
 23 22  1  0
 24 23  1  0
 27 23  1  0
 25 24  1  0
 26 25  1  0
 27 26  1  0
A    1
N18
A    2
C17
A    3
N19
A    4
C4
A    5
C5
A    6
C6
A    7
C10
A    8
C11
A    9
C12
A   10
C13
A   11
C1
A   12
C2
A   13
C3
A   14
C20
A   15
O23
A   16
N21
A   17
C22
A   18
C28
A   19
C27
A   20
C26
A   21
C25
A   22
O33
A   23
C34
A   24
C38
A   25
C37
A   26
C36
A   27
C35
A   28
C24
M  END
>  <Id>  (13) 
1OWI_426_A_245

>  <ChainId>  (13) 
A

>  <AsymId>  (13) 
B

>  <SeqNum>  (13) 
245

>  <Name>  (13) 
6-[(Z)-AMINO(IMINO)METHYL]-N-[3-(CYCLOPENTYLOXY)PHENYL]-2-NAPHTHAMIDE

>  <SystematicName>  (13) 
6-carbamimidoyl-N-(3-cyclopentyloxyphenyl)naphthalene-2-carboxamide

>  <Synonyms>  (13) 
6-[N-(3-CYCLOPENTYLOXYPHENYL)CARBAMYL]-2-NAPHTHALENECARBOXAMIDINE

>  <Type>  (13) 
NON-POLYMER

>  <Formula>  (13) 
C23 H23 N3 O2

>  <ObservedFormula>  (13) 
C23 N3 O2

>  <MolecularWeight>  (13) 
373.448

>  <ModifiedDate>  (13) 
2011-06-04

>  <Parent>  (13) 


>  <OneLetterCode>  (13) 


>  <SubcomponentList>  (13) 


>  <AmbiguousFlag>  (13) 
N

>  <InsertionCode>  (13) 


>  <InstanceId>  (13) 
1OWI_426_A_245

>  <ChemCompId>  (13) 
426

>  <PdbId>  (13) 
1OWI

>  <ResidueNumber>  (13) 
245

>  <InChI>  (13) 
InChI=1S/C23H23N3O2/c24-22(25)17-10-8-16-13-18(11-9-15(16)12-17)23(27)26-19-4-3-7-21(14-19)28-20-5-1-2-6-20/h3-4,7-14,20H,1-2,5-6H2,(H3,24,25)(H,26,27)

>  <InChIKey>  (13) 
FWTQOPWAMQXIMI-UHFFFAOYSA-N

>  <SMILES>  (13) 
[H]/N=C(/c1ccc2cc(ccc2c1)C(=O)Nc3cccc(c3)OC4CCCC4)\N

>  <MissingHeavyAtoms>  (13) 
0

>  <Model>  (13) 
1

>  <AltIds>  (13) 


>  <pKI>  (13) 
7.57

>  <ChemblID>  (13) 
CHEMBL111575

>  <standardized_canonical_smiles>  (13) 
N=C(N)c1ccc2cc(C(=O)Nc3cccc(OC4CCCC4)c3)ccc2c1

$$$$
1OWH_239_A_1001
     RDKit          3D

 24 26  0  0  0  0  0  0  0  0999 V2000
   17.0260   19.5340   33.8170 N   0  0  0  0  0  0  0  0  0  0  0  0
   18.3420   19.7790   34.0210 C   0  0  0  0  0  0  0  0  0  0  0  0
   18.8990   20.9440   34.4160 N   0  0  0  0  0  0  0  0  0  0  0  0
   19.2400   18.6840   33.6740 C   0  0  0  0  0  0  0  0  0  0  0  0
   20.5630   18.5360   34.1950 C   0  0  0  0  0  0  0  0  0  0  0  0
   21.4750   17.5390   33.8390 C   0  0  0  0  0  0  0  0  0  0  0  0
   22.6920   17.4620   34.5200 C   0  0  0  0  0  0  0  0  0  0  0  0
   23.5100   16.3800   34.1390 C   0  0  0  0  0  0  0  0  0  0  0  0
   23.3010   15.4310   33.1170 C   0  0  0  0  0  0  0  0  0  0  0  0
   22.0280   15.5900   32.5470 C   0  0  0  0  0  0  0  0  0  0  0  0
   21.0740   16.5880   32.8630 C   0  0  0  0  0  0  0  0  0  0  0  0
   19.8070   16.5780   32.2680 C   0  0  0  0  0  0  0  0  0  0  0  0
   18.9440   17.6150   32.6920 C   0  0  0  0  0  0  0  0  0  0  0  0
   24.3060   14.4770   32.6780 C   0  0  0  0  0  0  0  0  0  0  0  0
   25.1000   14.1030   33.5500 O   0  0  0  0  0  0  0  0  0  0  0  0
   24.4480   14.1640   31.3640 N   0  0  0  0  0  0  0  0  0  0  0  0
   25.3860   13.3270   30.7300 C   0  0  0  0  0  0  0  0  0  0  0  0
   25.9770   12.2390   31.4150 C   0  0  0  0  0  0  0  0  0  0  0  0
   26.9420   11.4730   30.7230 C   0  0  0  0  0  0  0  0  0  0  0  0
   27.1990   11.7810   29.3630 C   0  0  0  0  0  0  0  0  0  0  0  0
   26.5550   12.8220   28.6630 C   0  0  0  0  0  0  0  0  0  0  0  0
   25.7090   13.6600   29.4110 C   0  0  0  0  0  0  0  0  0  0  0  0
   28.2610   10.9740   28.6540 C   0  0  0  0  0  0  0  0  0  0  0  0
   29.6080   11.4260   28.9550 N   0  0  0  0  0  0  0  0  0  0  0  0
  2  1  2  0
  3  2  1  0
  4  2  1  0
  5  4  2  0
 13  4  1  0
  6  5  1  0
  7  6  2  0
 11  6  1  0
  8  7  1  0
  9  8  2  0
 10  9  1  0
 14  9  1  0
 11 10  2  0
 12 11  1  0
 13 12  2  0
 15 14  2  0
 16 14  1  0
 17 16  1  0
 18 17  2  0
 22 17  1  0
 19 18  1  0
 20 19  2  0
 21 20  1  0
 23 20  1  0
 22 21  2  0
 24 23  1  0
A    1
N18
A    2
C17
A    3
N19
A    4
C12
A    5
C13
A    6
C3
A    7
C4
A    8
C5
A    9
C6
A   10
C1
A   11
C2
A   12
C10
A   13
C11
A   14
C23
A   15
O35
A   16
N24
A   17
C25
A   18
C30
A   19
C29
A   20
C28
A   21
C27
A   22
C26
A   23
C37
A   24
N38
M  END
>  <Id>  (14) 
1OWH_239_A_1001

>  <ChainId>  (14) 
A

>  <AsymId>  (14) 
E

>  <SeqNum>  (14) 
1001

>  <Name>  (14) 
6-[(Z)-AMINO(IMINO)METHYL]-N-[4-(AMINOMETHYL)PHENYL]-2-NAPHTHAMIDE

>  <SystematicName>  (14) 
N-[4-(aminomethyl)phenyl]-6-carbamimidoyl-naphthalene-2-carboxamide

>  <Synonyms>  (14) 
6-[N-(4-(AMINOMETHYL)PHENYL)CARBAMYL]-2-NAPHTHALENECARBOXAMIDINE

>  <Type>  (14) 
NON-POLYMER

>  <Formula>  (14) 
C19 H18 N4 O

>  <ObservedFormula>  (14) 
C19 N4 O

>  <MolecularWeight>  (14) 
318.372

>  <ModifiedDate>  (14) 
2011-06-04

>  <Parent>  (14) 


>  <OneLetterCode>  (14) 


>  <SubcomponentList>  (14) 


>  <AmbiguousFlag>  (14) 
N

>  <InsertionCode>  (14) 


>  <InstanceId>  (14) 
1OWH_239_A_1001

>  <ChemCompId>  (14) 
239

>  <PdbId>  (14) 
1OWH

>  <ResidueNumber>  (14) 
1001

>  <InChI>  (14) 
InChI=1S/C19H18N4O/c20-11-12-1-7-17(8-2-12)23-19(24)16-6-4-13-9-15(18(21)22)5-3-14(13)10-16/h1-10H,11,20H2,(H3,21,22)(H,23,24)

>  <InChIKey>  (14) 
NLBDETRVUYOIHQ-UHFFFAOYSA-N

>  <SMILES>  (14) 
[H]/N=C(/c1ccc2cc(ccc2c1)C(=O)Nc3ccc(cc3)CN)\N

>  <MissingHeavyAtoms>  (14) 
0

>  <Model>  (14) 
1

>  <AltIds>  (14) 


>  <pKI>  (14) 
7.4

>  <ChemblID>  (14) 
CHEMBL324168

>  <standardized_canonical_smiles>  (14) 
N=C(N)c1ccc2cc(C(=O)Nc3ccc(CN)cc3)ccc2c1

$$$$
4FUC_239_A_301
     RDKit          3D

 24 26  0  0  0  0  0  0  0  0999 V2000
  -10.4290  -19.5540    7.3080 N   0  0  0  0  0  0  0  0  0  0  0  0
   -9.2240  -19.8460    7.0640 C   0  0  0  0  0  0  0  0  0  0  0  0
   -8.7900  -21.0620    6.5420 N   0  0  0  0  0  0  0  0  0  0  0  0
   -8.2220  -18.7670    7.3930 C   0  0  0  0  0  0  0  0  0  0  0  0
   -6.9830  -18.6930    6.7690 C   0  0  0  0  0  0  0  0  0  0  0  0
   -6.0640  -17.6640    7.1220 C   0  0  0  0  0  0  0  0  0  0  0  0
   -4.7670  -17.6020    6.4890 C   0  0  0  0  0  0  0  0  0  0  0  0
   -3.8740  -16.6160    6.8390 C   0  0  0  0  0  0  0  0  0  0  0  0
   -4.2270  -15.6690    7.8550 C   0  0  0  0  0  0  0  0  0  0  0  0
   -5.4660  -15.7150    8.4820 C   0  0  0  0  0  0  0  0  0  0  0  0
   -6.4180  -16.7130    8.1060 C   0  0  0  0  0  0  0  0  0  0  0  0
   -7.7090  -16.7660    8.7190 C   0  0  0  0  0  0  0  0  0  0  0  0
   -8.5840  -17.7820    8.3930 C   0  0  0  0  0  0  0  0  0  0  0  0
   -3.1720  -14.6500    8.2290 C   0  0  0  0  0  0  0  0  0  0  0  0
   -2.4260  -14.2000    7.3780 O   0  0  0  0  0  0  0  0  0  0  0  0
   -3.0510  -14.3350    9.5970 N   0  0  0  0  0  0  0  0  0  0  0  0
   -2.1230  -13.4250   10.1860 C   0  0  0  0  0  0  0  0  0  0  0  0
   -1.6120  -12.2730    9.5380 C   0  0  0  0  0  0  0  0  0  0  0  0
   -0.7480  -11.4130   10.2340 C   0  0  0  0  0  0  0  0  0  0  0  0
   -0.3900  -11.6760   11.5540 C   0  0  0  0  0  0  0  0  0  0  0  0
   -0.8670  -12.8280   12.1920 C   0  0  0  0  0  0  0  0  0  0  0  0
   -1.7250  -13.7030   11.5250 C   0  0  0  0  0  0  0  0  0  0  0  0
    0.4710  -10.6980   12.3300 C   0  0  0  0  0  0  0  0  0  0  0  0
    1.8830  -11.0600   12.1200 N   0  0  0  0  0  0  0  0  0  0  0  0
  2  1  2  0
  3  2  1  0
  4  2  1  0
  5  4  2  0
 13  4  1  0
  6  5  1  0
  7  6  2  0
 11  6  1  0
  8  7  1  0
  9  8  2  0
 10  9  1  0
 14  9  1  0
 11 10  2  0
 12 11  1  0
 13 12  2  0
 15 14  2  0
 16 14  1  0
 17 16  1  0
 18 17  2  0
 22 17  1  0
 19 18  1  0
 20 19  2  0
 21 20  1  0
 23 20  1  0
 22 21  2  0
 24 23  1  0
A    1
N18
A    2
C17
A    3
N19
A    4
C12
A    5
C13
A    6
C3
A    7
C4
A    8
C5
A    9
C6
A   10
C1
A   11
C2
A   12
C10
A   13
C11
A   14
C23
A   15
O35
A   16
N24
A   17
C25
A   18
C30
A   19
C29
A   20
C28
A   21
C27
A   22
C26
A   23
C37
A   24
N38
M  END
>  <Id>  (15) 
4FUC_239_A_301

>  <ChainId>  (15) 
A

>  <AsymId>  (15) 
B

>  <SeqNum>  (15) 
301

>  <Name>  (15) 
6-[(Z)-AMINO(IMINO)METHYL]-N-[4-(AMINOMETHYL)PHENYL]-2-NAPHTHAMIDE

>  <SystematicName>  (15) 
N-[4-(aminomethyl)phenyl]-6-carbamimidoyl-naphthalene-2-carboxamide

>  <Synonyms>  (15) 
6-[N-(4-(AMINOMETHYL)PHENYL)CARBAMYL]-2-NAPHTHALENECARBOXAMIDINE

>  <Type>  (15) 
NON-POLYMER

>  <Formula>  (15) 
C19 H18 N4 O

>  <ObservedFormula>  (15) 
C19 N4 O

>  <MolecularWeight>  (15) 
318.372

>  <ModifiedDate>  (15) 
2011-06-04

>  <Parent>  (15) 


>  <OneLetterCode>  (15) 


>  <SubcomponentList>  (15) 


>  <AmbiguousFlag>  (15) 
N

>  <InsertionCode>  (15) 


>  <InstanceId>  (15) 
4FUC_239_A_301

>  <ChemCompId>  (15) 
239

>  <PdbId>  (15) 
4FUC

>  <ResidueNumber>  (15) 
301

>  <InChI>  (15) 
InChI=1S/C19H18N4O/c20-11-12-1-7-17(8-2-12)23-19(24)16-6-4-13-9-15(18(21)22)5-3-14(13)10-16/h1-10H,11,20H2,(H3,21,22)(H,23,24)

>  <InChIKey>  (15) 
NLBDETRVUYOIHQ-UHFFFAOYSA-N

>  <SMILES>  (15) 
[H]/N=C(/c1ccc2cc(ccc2c1)C(=O)Nc3ccc(cc3)CN)\N

>  <MissingHeavyAtoms>  (15) 
0

>  <Model>  (15) 
1

>  <AltIds>  (15) 


>  <pKI>  (15) 
7.4

>  <ChemblID>  (15) 
CHEMBL324168

>  <standardized_canonical_smiles>  (15) 
N=C(N)c1ccc2cc(C(=O)Nc3ccc(CN)cc3)ccc2c1

$$$$
4ZKN_PG4_U_303
     RDKit          3D

 13 12  0  0  0  0  0  0  0  0999 V2000
  -51.5200  -11.5390   -0.2570 O   0  0  0  0  0  0  0  0  0  0  0  0
  -50.8870  -12.2240    0.8330 C   0  0  0  0  0  0  0  0  0  0  0  0
  -49.4800  -11.6660    0.9880 C   0  0  0  0  0  0  0  0  0  0  0  0
  -49.0400  -11.8210    2.3370 O   0  0  0  0  0  0  0  0  0  0  0  0
  -48.7020  -10.5560    2.9030 C   0  0  0  0  0  0  0  0  0  0  0  0
  -47.2110  -10.4260    3.1810 C   0  0  0  0  0  0  0  0  0  0  0  0
  -46.8410  -11.4080    4.1420 O   0  0  0  0  0  0  0  0  0  0  0  0
  -46.0550  -10.8720    5.2020 C   0  0  0  0  0  0  0  0  0  0  0  0
  -46.9220  -10.9160    6.4540 C   0  0  0  0  0  0  0  0  0  0  0  0
  -46.1400  -10.9070    7.6450 O   0  0  0  0  0  0  0  0  0  0  0  0
  -46.1290  -12.1860    8.2680 C   0  0  0  0  0  0  0  0  0  0  0  0
  -47.3350  -12.3260    9.1860 C   0  0  0  0  0  0  0  0  0  0  0  0
  -47.8130  -13.6700    9.1590 O   0  0  0  0  0  0  0  0  0  0  0  0
  2  1  1  0
  3  2  1  0
  4  3  1  0
  5  4  1  0
  6  5  1  0
  7  6  1  0
  8  7  1  0
  9  8  1  0
 10  9  1  0
 11 10  1  0
 12 11  1  0
 13 12  1  0
A    1
O1
A    2
C1
A    3
C2
A    4
O2
A    5
C3
A    6
C4
A    7
O3
A    8
C5
A    9
C6
A   10
O4
A   11
C7
A   12
C8
A   13
O5
M  END
>  <Id>  (16) 
4ZKN_PG4_U_303

>  <ChainId>  (16) 
U

>  <AsymId>  (16) 
E

>  <SeqNum>  (16) 
303

>  <Name>  (16) 
TETRAETHYLENE GLYCOL

>  <SystematicName>  (16) 
2-[2-[2-(2-hydroxyethoxy)ethoxy]ethoxy]ethanol

>  <Synonyms>  (16) 


>  <Type>  (16) 
NON-POLYMER

>  <Formula>  (16) 
C8 H18 O5

>  <ObservedFormula>  (16) 
C8 O5

>  <MolecularWeight>  (16) 
194.226

>  <ModifiedDate>  (16) 
2011-06-04

>  <Parent>  (16) 


>  <OneLetterCode>  (16) 


>  <SubcomponentList>  (16) 


>  <AmbiguousFlag>  (16) 
N

>  <InsertionCode>  (16) 


>  <InstanceId>  (16) 
4ZKN_PG4_U_303

>  <ChemCompId>  (16) 
PG4

>  <PdbId>  (16) 
4ZKN

>  <ResidueNumber>  (16) 
303

>  <InChI>  (16) 
InChI=1S/C8H18O5/c9-1-3-11-5-7-13-8-6-12-4-2-10/h9-10H,1-8H2

>  <InChIKey>  (16) 
UWHCKJMYHZGTIT-UHFFFAOYSA-N

>  <SMILES>  (16) 
C(COCCOCCOCCO)O

>  <MissingHeavyAtoms>  (16) 
0

>  <Model>  (16) 
1

>  <AltIds>  (16) 


>  <pKI>  (16) 
7.62

>  <ChemblID>  (16) 
CHEMBL442201

>  <standardized_canonical_smiles>  (16) 
CC(C)C1NCCc2ccc(NC(=O)c3ccc4cc(C(=N)N)ccc4c3)cc21

$$$$
1OWH_SO4_A_303
     RDKit          3D

  5  4  0  0  0  0  0  0  0  0999 V2000
    9.3110   18.3600   12.0480 S   0  0  0  0  0  0  0  0  0  0  0  0
    9.1330   19.5610   11.3510 O   0  0  0  0  0  0  0  0  0  0  0  0
   10.5290   18.5780   12.6780 O   0  0  0  0  0  0  0  0  0  0  0  0
    9.3570   17.2490   11.1240 O   0  0  0  0  0  0  0  0  0  0  0  0
    8.2790   18.1850   13.0020 O   0  0  0  0  0  0  0  0  0  0  0  0
  2  1  2  0
  3  1  2  0
  4  1  1  0
  5  1  1  0
M  CHG  2   4  -1   5  -1
A    1
S
A    2
O1
A    3
O2
A    4
O3
A    5
O4
M  END
>  <Id>  (17) 
1OWH_SO4_A_303

>  <ChainId>  (17) 
A

>  <AsymId>  (17) 
D

>  <SeqNum>  (17) 
303

>  <Name>  (17) 
SULFATE ION

>  <SystematicName>  (17) 
sulfate

>  <Synonyms>  (17) 


>  <Type>  (17) 
NON-POLYMER

>  <Formula>  (17) 
O4 S

>  <ObservedFormula>  (17) 
S O4

>  <MolecularWeight>  (17) 
96.063

>  <ModifiedDate>  (17) 
2011-06-04

>  <Parent>  (17) 


>  <OneLetterCode>  (17) 


>  <SubcomponentList>  (17) 


>  <AmbiguousFlag>  (17) 
N

>  <InsertionCode>  (17) 


>  <InstanceId>  (17) 
1OWH_SO4_A_303

>  <ChemCompId>  (17) 
SO4

>  <PdbId>  (17) 
1OWH

>  <ResidueNumber>  (17) 
303

>  <InChI>  (17) 
InChI=1S/H2O4S/c1-5(2,3)4/h(H2,1,2,3,4)/p-2

>  <InChIKey>  (17) 
QAOWNCQODCNURD-UHFFFAOYSA-L

>  <SMILES>  (17) 
[O-]S(=O)(=O)[O-]

>  <MissingHeavyAtoms>  (17) 
0

>  <Model>  (17) 
1

>  <AltIds>  (17) 


>  <pKI>  (17) 
7.62

>  <ChemblID>  (17) 
CHEMBL442201

>  <standardized_canonical_smiles>  (17) 
CC(C)C1NCCc2ccc(NC(=O)c3ccc4cc(C(=N)N)ccc4c3)cc21

$$$$
4OS4_GOL_A_303
     RDKit          3D

  6  5  0  0  0  0  0  0  0  0999 V2000
   42.4520   -5.1220    1.9700 C   0  0  0  0  0  0  0  0  0  0  0  0
   43.1970   -4.8020    0.7920 O   0  0  0  0  0  0  0  0  0  0  0  0
   41.5280   -6.2770    1.6390 C   0  0  0  0  0  0  0  0  0  0  0  0
   42.2010   -7.0530    0.6390 O   0  0  0  0  0  0  0  0  0  0  0  0
   40.1650   -5.8020    1.1190 C   0  0  0  0  0  0  0  0  0  0  0  0
   39.3520   -5.1640    2.1200 O   0  0  0  0  0  0  0  0  0  0  0  0
  2  1  1  0
  3  1  1  0
  4  3  1  0
  5  3  1  0
  6  5  1  0
A    1
C1
A    2
O1
A    3
C2
A    4
O2
A    5
C3
A    6
O3
M  END
>  <Id>  (18) 
4OS4_GOL_A_303

>  <ChainId>  (18) 
A

>  <AsymId>  (18) 
E

>  <SeqNum>  (18) 
303

>  <Name>  (18) 
GLYCEROL

>  <SystematicName>  (18) 
propane-1,2,3-triol

>  <Synonyms>  (18) 
GLYCERIN; PROPANE-1,2,3-TRIOL

>  <Type>  (18) 
NON-POLYMER

>  <Formula>  (18) 
C3 H8 O3

>  <ObservedFormula>  (18) 
C3 O3

>  <MolecularWeight>  (18) 
92.094

>  <ModifiedDate>  (18) 
2011-06-04

>  <Parent>  (18) 


>  <OneLetterCode>  (18) 


>  <SubcomponentList>  (18) 


>  <AmbiguousFlag>  (18) 
N

>  <InsertionCode>  (18) 


>  <InstanceId>  (18) 
4OS4_GOL_A_303

>  <ChemCompId>  (18) 
GOL

>  <PdbId>  (18) 
4OS4

>  <ResidueNumber>  (18) 
303

>  <InChI>  (18) 
InChI=1S/C3H8O3/c4-1-3(6)2-5/h3-6H,1-2H2

>  <InChIKey>  (18) 
PEDCQBHIVMGVHV-UHFFFAOYSA-N

>  <SMILES>  (18) 
C(C(CO)O)O

>  <MissingHeavyAtoms>  (18) 
0

>  <Model>  (18) 
1

>  <AltIds>  (18) 


>  <pKI>  (18) 
7.62

>  <ChemblID>  (18) 
CHEMBL442201

>  <standardized_canonical_smiles>  (18) 
CC(C)C1NCCc2ccc(NC(=O)c3ccc4cc(C(=N)N)ccc4c3)cc21

$$$$
1OWE_SO4_A_303
     RDKit          3D

  5  4  0  0  0  0  0  0  0  0999 V2000
    9.2520   18.2620   11.9390 S   0  0  0  0  0  0  0  0  0  0  0  0
    9.2610   19.4710   11.1800 O   0  0  0  0  0  0  0  0  0  0  0  0
   10.3610   18.3540   12.7860 O   0  0  0  0  0  0  0  0  0  0  0  0
    9.4110   17.1630   11.0650 O   0  0  0  0  0  0  0  0  0  0  0  0
    8.0670   18.1300   12.7200 O   0  0  0  0  0  0  0  0  0  0  0  0
  2  1  2  0
  3  1  2  0
  4  1  1  0
  5  1  1  0
M  CHG  2   4  -1   5  -1
A    1
S
A    2
O1
A    3
O2
A    4
O3
A    5
O4
M  END
>  <Id>  (19) 
1OWE_SO4_A_303

>  <ChainId>  (19) 
A

>  <AsymId>  (19) 
D

>  <SeqNum>  (19) 
303

>  <Name>  (19) 
SULFATE ION

>  <SystematicName>  (19) 
sulfate

>  <Synonyms>  (19) 


>  <Type>  (19) 
NON-POLYMER

>  <Formula>  (19) 
O4 S

>  <ObservedFormula>  (19) 
S O4

>  <MolecularWeight>  (19) 
96.063

>  <ModifiedDate>  (19) 
2011-06-04

>  <Parent>  (19) 


>  <OneLetterCode>  (19) 


>  <SubcomponentList>  (19) 


>  <AmbiguousFlag>  (19) 
N

>  <InsertionCode>  (19) 


>  <InstanceId>  (19) 
1OWE_SO4_A_303

>  <ChemCompId>  (19) 
SO4

>  <PdbId>  (19) 
1OWE

>  <ResidueNumber>  (19) 
303

>  <InChI>  (19) 
InChI=1S/H2O4S/c1-5(2,3)4/h(H2,1,2,3,4)/p-2

>  <InChIKey>  (19) 
QAOWNCQODCNURD-UHFFFAOYSA-L

>  <SMILES>  (19) 
[O-]S(=O)(=O)[O-]

>  <MissingHeavyAtoms>  (19) 
0

>  <Model>  (19) 
1

>  <AltIds>  (19) 


>  <pKI>  (19) 
7.62

>  <ChemblID>  (19) 
CHEMBL442201

>  <standardized_canonical_smiles>  (19) 
CC(C)C1NCCc2ccc(NC(=O)c3ccc4cc(C(=N)N)ccc4c3)cc21

$$$$
1SQA_SO4_A_303
     RDKit          3D

  5  4  0  0  0  0  0  0  0  0999 V2000
    9.2950   18.7470   12.1330 S   0  0  0  0  0  0  0  0  0  0  0  0
    9.1120   19.9090   11.3570 O   0  0  0  0  0  0  0  0  0  0  0  0
   10.4830   18.9100   12.9130 O   0  0  0  0  0  0  0  0  0  0  0  0
    9.4310   17.6240   11.2640 O   0  0  0  0  0  0  0  0  0  0  0  0
    8.1750   18.6410   13.0010 O   0  0  0  0  0  0  0  0  0  0  0  0
  2  1  2  0
  3  1  2  0
  4  1  1  0
  5  1  1  0
M  CHG  2   4  -1   5  -1
A    1
S
A    2
O1
A    3
O2
A    4
O3
A    5
O4
M  END
>  <Id>  (20) 
1SQA_SO4_A_303

>  <ChainId>  (20) 
A

>  <AsymId>  (20) 
D

>  <SeqNum>  (20) 
303

>  <Name>  (20) 
SULFATE ION

>  <SystematicName>  (20) 
sulfate

>  <Synonyms>  (20) 


>  <Type>  (20) 
NON-POLYMER

>  <Formula>  (20) 
O4 S

>  <ObservedFormula>  (20) 
S O4

>  <MolecularWeight>  (20) 
96.063

>  <ModifiedDate>  (20) 
2011-06-04

>  <Parent>  (20) 


>  <OneLetterCode>  (20) 


>  <SubcomponentList>  (20) 


>  <AmbiguousFlag>  (20) 
N

>  <InsertionCode>  (20) 


>  <InstanceId>  (20) 
1SQA_SO4_A_303

>  <ChemCompId>  (20) 
SO4

>  <PdbId>  (20) 
1SQA

>  <ResidueNumber>  (20) 
303

>  <InChI>  (20) 
InChI=1S/H2O4S/c1-5(2,3)4/h(H2,1,2,3,4)/p-2

>  <InChIKey>  (20) 
QAOWNCQODCNURD-UHFFFAOYSA-L

>  <SMILES>  (20) 
[O-]S(=O)(=O)[O-]

>  <MissingHeavyAtoms>  (20) 
0

>  <Model>  (20) 
1

>  <AltIds>  (20) 


>  <pKI>  (20) 
7.62

>  <ChemblID>  (20) 
CHEMBL442201

>  <standardized_canonical_smiles>  (20) 
CC(C)C1NCCc2ccc(NC(=O)c3ccc4cc(C(=N)N)ccc4c3)cc21

$$$$
1SQO_SO4_A_303
     RDKit          3D

  5  4  0  0  0  0  0  0  0  0999 V2000
    9.2830   18.5110   12.2190 S   0  0  0  0  0  0  0  0  0  0  0  0
    9.0750   19.7330   11.5510 O   0  0  0  0  0  0  0  0  0  0  0  0
   10.4630   18.6800   12.9480 O   0  0  0  0  0  0  0  0  0  0  0  0
    9.4160   17.4740   11.2890 O   0  0  0  0  0  0  0  0  0  0  0  0
    8.1740   18.3610   13.1230 O   0  0  0  0  0  0  0  0  0  0  0  0
  2  1  2  0
  3  1  2  0
  4  1  1  0
  5  1  1  0
M  CHG  2   4  -1   5  -1
A    1
S
A    2
O1
A    3
O2
A    4
O3
A    5
O4
M  END
>  <Id>  (21) 
1SQO_SO4_A_303

>  <ChainId>  (21) 
A

>  <AsymId>  (21) 
D

>  <SeqNum>  (21) 
303

>  <Name>  (21) 
SULFATE ION

>  <SystematicName>  (21) 
sulfate

>  <Synonyms>  (21) 


>  <Type>  (21) 
NON-POLYMER

>  <Formula>  (21) 
O4 S

>  <ObservedFormula>  (21) 
S O4

>  <MolecularWeight>  (21) 
96.063

>  <ModifiedDate>  (21) 
2011-06-04

>  <Parent>  (21) 


>  <OneLetterCode>  (21) 


>  <SubcomponentList>  (21) 


>  <AmbiguousFlag>  (21) 
N

>  <InsertionCode>  (21) 


>  <InstanceId>  (21) 
1SQO_SO4_A_303

>  <ChemCompId>  (21) 
SO4

>  <PdbId>  (21) 
1SQO

>  <ResidueNumber>  (21) 
303

>  <InChI>  (21) 
InChI=1S/H2O4S/c1-5(2,3)4/h(H2,1,2,3,4)/p-2

>  <InChIKey>  (21) 
QAOWNCQODCNURD-UHFFFAOYSA-L

>  <SMILES>  (21) 
[O-]S(=O)(=O)[O-]

>  <MissingHeavyAtoms>  (21) 
0

>  <Model>  (21) 
1

>  <AltIds>  (21) 


>  <pKI>  (21) 
7.62

>  <ChemblID>  (21) 
CHEMBL442201

>  <standardized_canonical_smiles>  (21) 
CC(C)C1NCCc2ccc(NC(=O)c3ccc4cc(C(=N)N)ccc4c3)cc21

$$$$
4FU7_SO4_A_303
     RDKit          3D

  5  4  0  0  0  0  0  0  0  0999 V2000
   22.9580  -11.1290    7.6050 S   0  0  0  0  0  0  0  0  0  0  0  0
   24.1800  -11.4920    6.8240 O   0  0  0  0  0  0  0  0  0  0  0  0
   21.7870  -11.9190    7.1800 O   0  0  0  0  0  0  0  0  0  0  0  0
   23.2410  -11.2940    8.9830 O   0  0  0  0  0  0  0  0  0  0  0  0
   22.7190   -9.6700    7.3630 O   0  0  0  0  0  0  0  0  0  0  0  0
  2  1  2  0
  3  1  2  0
  4  1  1  0
  5  1  1  0
M  CHG  2   4  -1   5  -1
A    1
S
A    2
O1
A    3
O2
A    4
O3
A    5
O4
M  END
>  <Id>  (22) 
4FU7_SO4_A_303

>  <ChainId>  (22) 
A

>  <AsymId>  (22) 
D

>  <SeqNum>  (22) 
303

>  <Name>  (22) 
SULFATE ION

>  <SystematicName>  (22) 
sulfate

>  <Synonyms>  (22) 


>  <Type>  (22) 
NON-POLYMER

>  <Formula>  (22) 
O4 S

>  <ObservedFormula>  (22) 
S O4

>  <MolecularWeight>  (22) 
96.063

>  <ModifiedDate>  (22) 
2011-06-04

>  <Parent>  (22) 


>  <OneLetterCode>  (22) 


>  <SubcomponentList>  (22) 


>  <AmbiguousFlag>  (22) 
N

>  <InsertionCode>  (22) 


>  <InstanceId>  (22) 
4FU7_SO4_A_303

>  <ChemCompId>  (22) 
SO4

>  <PdbId>  (22) 
4FU7

>  <ResidueNumber>  (22) 
303

>  <InChI>  (22) 
InChI=1S/H2O4S/c1-5(2,3)4/h(H2,1,2,3,4)/p-2

>  <InChIKey>  (22) 
QAOWNCQODCNURD-UHFFFAOYSA-L

>  <SMILES>  (22) 
[O-]S(=O)(=O)[O-]

>  <MissingHeavyAtoms>  (22) 
0

>  <Model>  (22) 
1

>  <AltIds>  (22) 


>  <pKI>  (22) 
7.62

>  <ChemblID>  (22) 
CHEMBL442201

>  <standardized_canonical_smiles>  (22) 
CC(C)C1NCCc2ccc(NC(=O)c3ccc4cc(C(=N)N)ccc4c3)cc21

$$$$
4OS6_ACT_A_303
     RDKit          3D

  4  3  0  0  0  0  0  0  0  0999 V2000
   -0.2610    1.8790  -15.4210 C   0  0  0  0  0  0  0  0  0  0  0  0
   -1.0090    0.9610  -15.8130 O   0  0  0  0  0  0  0  0  0  0  0  0
   -0.3630    3.0650  -15.8060 O   0  0  0  0  0  0  0  0  0  0  0  0
    0.8020    1.5310  -14.4410 C   0  0  0  0  0  0  0  0  0  0  0  0
  2  1  2  0
  3  1  1  0
  4  1  1  0
M  CHG  1   3  -1
A    1
C
A    2
O
A    3
OXT
A    4
CH3
M  END
>  <Id>  (23) 
4OS6_ACT_A_303

>  <ChainId>  (23) 
A

>  <AsymId>  (23) 
E

>  <SeqNum>  (23) 
303

>  <Name>  (23) 
ACETATE ION

>  <SystematicName>  (23) 
ethanoate

>  <Synonyms>  (23) 


>  <Type>  (23) 
NON-POLYMER

>  <Formula>  (23) 
C2 H3 O2

>  <ObservedFormula>  (23) 
C2 O2

>  <MolecularWeight>  (23) 
59.044

>  <ModifiedDate>  (23) 
2011-06-04

>  <Parent>  (23) 


>  <OneLetterCode>  (23) 


>  <SubcomponentList>  (23) 


>  <AmbiguousFlag>  (23) 
N

>  <InsertionCode>  (23) 


>  <InstanceId>  (23) 
4OS6_ACT_A_303

>  <ChemCompId>  (23) 
ACT

>  <PdbId>  (23) 
4OS6

>  <ResidueNumber>  (23) 
303

>  <InChI>  (23) 
InChI=1S/C2H4O2/c1-2(3)4/h1H3,(H,3,4)/p-1

>  <InChIKey>  (23) 
QTBSBXVTEAMEQO-UHFFFAOYSA-M

>  <SMILES>  (23) 
CC(=O)[O-]

>  <MissingHeavyAtoms>  (23) 
0

>  <Model>  (23) 
1

>  <AltIds>  (23) 


>  <pKI>  (23) 
7.62

>  <ChemblID>  (23) 
CHEMBL442201

>  <standardized_canonical_smiles>  (23) 
CC(C)C1NCCc2ccc(NC(=O)c3ccc4cc(C(=N)N)ccc4c3)cc21

$$$$
4OS1_ACT_A_303
     RDKit          3D

  4  3  0  0  0  0  0  0  0  0999 V2000
   -0.4250    1.8690  -15.6360 C   0  0  0  0  0  0  0  0  0  0  0  0
   -0.0830    3.0630  -15.8080 O   0  0  0  0  0  0  0  0  0  0  0  0
   -1.1740    1.5200  -14.6990 O   0  0  0  0  0  0  0  0  0  0  0  0
    0.0690    0.8180  -16.5850 C   0  0  0  0  0  0  0  0  0  0  0  0
  2  1  2  0
  3  1  1  0
  4  1  1  0
M  CHG  1   3  -1
A    1
C
A    2
O
A    3
OXT
A    4
CH3
M  END
>  <Id>  (24) 
4OS1_ACT_A_303

>  <ChainId>  (24) 
A

>  <AsymId>  (24) 
E

>  <SeqNum>  (24) 
303

>  <Name>  (24) 
ACETATE ION

>  <SystematicName>  (24) 
ethanoate

>  <Synonyms>  (24) 


>  <Type>  (24) 
NON-POLYMER

>  <Formula>  (24) 
C2 H3 O2

>  <ObservedFormula>  (24) 
C2 O2

>  <MolecularWeight>  (24) 
59.044

>  <ModifiedDate>  (24) 
2011-06-04

>  <Parent>  (24) 


>  <OneLetterCode>  (24) 


>  <SubcomponentList>  (24) 


>  <AmbiguousFlag>  (24) 
N

>  <InsertionCode>  (24) 


>  <InstanceId>  (24) 
4OS1_ACT_A_303

>  <ChemCompId>  (24) 
ACT

>  <PdbId>  (24) 
4OS1

>  <ResidueNumber>  (24) 
303

>  <InChI>  (24) 
InChI=1S/C2H4O2/c1-2(3)4/h1H3,(H,3,4)/p-1

>  <InChIKey>  (24) 
QTBSBXVTEAMEQO-UHFFFAOYSA-M

>  <SMILES>  (24) 
CC(=O)[O-]

>  <MissingHeavyAtoms>  (24) 
0

>  <Model>  (24) 
1

>  <AltIds>  (24) 


>  <pKI>  (24) 
7.62

>  <ChemblID>  (24) 
CHEMBL442201

>  <standardized_canonical_smiles>  (24) 
CC(C)C1NCCc2ccc(NC(=O)c3ccc4cc(C(=N)N)ccc4c3)cc21

$$$$
1OWK_303_A_245
     RDKit          3D

 29 32  0  0  0  0  0  0  0  0999 V2000
   16.8270   19.5210   33.8950 N   0  0  0  0  0  0  0  0  0  0  0  0
   18.1490   19.6460   34.0260 C   0  0  0  0  0  0  0  0  0  0  0  0
   18.6210   20.6980   34.6860 N   0  0  0  0  0  0  0  0  0  0  0  0
   19.0720   18.6300   33.4680 C   0  0  0  0  0  0  0  0  0  0  0  0
   20.3550   18.4680   34.0840 C   0  0  0  0  0  0  0  0  0  0  0  0
   21.3000   17.4730   33.6990 C   0  0  0  0  0  0  0  0  0  0  0  0
   22.5670   17.3690   34.3590 C   0  0  0  0  0  0  0  0  0  0  0  0
   23.5250   16.3790   33.9880 C   0  0  0  0  0  0  0  0  0  0  0  0
   23.2420   15.4560   32.9260 C   0  0  0  0  0  0  0  0  0  0  0  0
   21.9590   15.5450   32.2480 C   0  0  0  0  0  0  0  0  0  0  0  0
   20.9680   16.5530   32.6240 C   0  0  0  0  0  0  0  0  0  0  0  0
   19.6650   16.7340   31.9940 C   0  0  0  0  0  0  0  0  0  0  0  0
   18.7250   17.7480   32.3870 C   0  0  0  0  0  0  0  0  0  0  0  0
   24.3510   14.5100   32.6360 C   0  0  0  0  0  0  0  0  0  0  0  0
   25.1630   14.2110   33.5140 O   0  0  0  0  0  0  0  0  0  0  0  0
   24.4400   14.0100   31.3670 N   0  0  0  0  0  0  0  0  0  0  0  0
   25.5050   13.3080   30.8260 C   0  0  0  0  0  0  0  0  0  0  0  0
   26.3210   12.4060   31.5490 C   0  0  0  0  0  0  0  0  0  0  0  0
   27.3380   11.6730   30.9030 C   0  0  0  0  0  0  0  0  0  0  0  0
   27.4820   11.7860   29.4900 C   0  0  0  0  0  0  0  0  0  0  0  0
   26.6960   12.7020   28.7690 C   0  0  0  0  0  0  0  0  0  0  0  0
   25.7510   13.4800   29.4470 C   0  0  0  0  0  0  0  0  0  0  0  0
   28.4830   10.9230   28.7370 C   0  0  0  0  0  0  0  0  0  0  0  0
   28.9420    9.7200   29.5700 C   0  0  0  0  0  0  0  0  0  0  0  0
   29.4040   10.2470   30.8550 N   0  0  0  0  0  0  0  0  0  0  0  0
   28.3050   10.7780   31.6790 C   0  0  0  0  0  0  0  0  0  0  0  0
   28.9100   11.4320   32.9320 C   0  0  0  0  0  0  0  0  0  0  0  0
   29.9000   12.5830   32.6320 C   0  0  0  0  0  0  0  0  0  0  0  0
   29.4260   10.4000   33.9300 C   0  0  0  0  0  0  0  0  0  0  0  0
  2  1  2  0
  3  2  1  0
  4  2  1  0
  5  4  2  0
 13  4  1  0
  6  5  1  0
  7  6  2  0
 11  6  1  0
  8  7  1  0
  9  8  2  0
 10  9  1  0
 14  9  1  0
 11 10  2  0
 12 11  1  0
 13 12  2  0
 15 14  2  0
 16 14  1  0
 17 16  1  0
 18 17  2  0
 22 17  1  0
 19 18  1  0
 20 19  2  0
 26 19  1  0
 21 20  1  0
 23 20  1  0
 22 21  2  0
 24 23  1  0
 25 24  1  0
 26 25  1  0
 27 26  1  0
 28 27  1  0
 29 27  1  0
A    1
N18
A    2
C17
A    3
N19
A    4
C4
A    5
C5
A    6
C6
A    7
C10
A    8
C11
A    9
C12
A   10
C13
A   11
C1
A   12
C2
A   13
C3
A   14
C20
A   15
O21
A   16
N22
A   17
C23
A   18
C28
A   19
C27
A   20
C26
A   21
C25
A   22
C24
A   23
C32
A   24
C33
A   25
N34
A   26
C35
A   27
C40
A   28
C42
A   29
C46
M  END
>  <Id>  (25) 
1OWK_303_A_245

>  <ChainId>  (25) 
A

>  <AsymId>  (25) 
B

>  <SeqNum>  (25) 
245

>  <Name>  (25) 
6-[(Z)-AMINO(IMINO)METHYL]-N-(1-ISOPROPYL-1,2,3,4-TETRAHYDROISOQUINOLIN-7-YL)-2-NAPHTHAMIDE

>  <SystematicName>  (25) 
6-carbamimidoyl-N-[(1S)-1-propan-2-yl-1,2,3,4-tetrahydroisoquinolin-7-yl]naphthalene-2-carboxamide

>  <Synonyms>  (25) 
6-[N-(1-ISOPROPYL-1,2,3,4-TETRAHYDRO-7-ISOQUINOLINYL)CARBAMYL]-2-NAPHTHALENECARBOXAMIDINE

>  <Type>  (25) 
NON-POLYMER

>  <Formula>  (25) 
C24 H26 N4 O

>  <ObservedFormula>  (25) 
C24 N4 O

>  <MolecularWeight>  (25) 
386.489

>  <ModifiedDate>  (25) 
2011-06-04

>  <Parent>  (25) 


>  <OneLetterCode>  (25) 


>  <SubcomponentList>  (25) 


>  <AmbiguousFlag>  (25) 
N

>  <InsertionCode>  (25) 


>  <InstanceId>  (25) 
1OWK_303_A_245

>  <ChemCompId>  (25) 
303

>  <PdbId>  (25) 
1OWK

>  <ResidueNumber>  (25) 
245

>  <InChI>  (25) 
InChI=1S/C24H26N4O/c1-14(2)22-21-13-20(8-7-15(21)9-10-27-22)28-24(29)19-6-4-16-11-18(23(25)26)5-3-17(16)12-19/h3-8,11-14,22,27H,9-10H2,1-2H3,(H3,25,26)(H,28,29)/t22-/m0/s1

>  <InChIKey>  (25) 
DARQQJKHXPXSRO-QFIPXVFZSA-N

>  <SMILES>  (25) 
CC(C)[C@H]1c2cc(ccc2CCN1)NC(=O)c3ccc4cc(ccc4c3)C(=N)N

>  <MissingHeavyAtoms>  (25) 
0

>  <Model>  (25) 
1

>  <AltIds>  (25) 


>  <pKI>  (25) 
7.62

>  <ChemblID>  (25) 
CHEMBL442201

>  <standardized_canonical_smiles>  (25) 
CC(C)C1NCCc2ccc(NC(=O)c3ccc4cc(C(=N)N)ccc4c3)cc21

$$$$
4MNV_ACT_A_303
     RDKit          3D

  4  3  0  0  0  0  0  0  0  0999 V2000
    9.3560   -3.0670    8.7630 C   0  0  0  0  0  0  0  0  0  0  0  0
    9.7350   -4.2550    8.7610 O   0  0  0  0  0  0  0  0  0  0  0  0
   10.1530   -2.1310    8.9970 O   0  0  0  0  0  0  0  0  0  0  0  0
    7.9150   -2.7620    8.4740 C   0  0  0  0  0  0  0  0  0  0  0  0
  2  1  2  0
  3  1  1  0
  4  1  1  0
M  CHG  1   3  -1
A    1
C
A    2
O
A    3
OXT
A    4
CH3
M  END
>  <Id>  (26) 
4MNV_ACT_A_303

>  <ChainId>  (26) 
A

>  <AsymId>  (26) 
F

>  <SeqNum>  (26) 
303

>  <Name>  (26) 
ACETATE ION

>  <SystematicName>  (26) 
ethanoate

>  <Synonyms>  (26) 


>  <Type>  (26) 
NON-POLYMER

>  <Formula>  (26) 
C2 H3 O2

>  <ObservedFormula>  (26) 
C2 O2

>  <MolecularWeight>  (26) 
59.044

>  <ModifiedDate>  (26) 
2011-06-04

>  <Parent>  (26) 


>  <OneLetterCode>  (26) 


>  <SubcomponentList>  (26) 


>  <AmbiguousFlag>  (26) 
N

>  <InsertionCode>  (26) 


>  <InstanceId>  (26) 
4MNV_ACT_A_303

>  <ChemCompId>  (26) 
ACT

>  <PdbId>  (26) 
4MNV

>  <ResidueNumber>  (26) 
303

>  <InChI>  (26) 
InChI=1S/C2H4O2/c1-2(3)4/h1H3,(H,3,4)/p-1

>  <InChIKey>  (26) 
QTBSBXVTEAMEQO-UHFFFAOYSA-M

>  <SMILES>  (26) 
CC(=O)[O-]

>  <MissingHeavyAtoms>  (26) 
0

>  <Model>  (26) 
1

>  <AltIds>  (26) 


>  <pKI>  (26) 
7.62

>  <ChemblID>  (26) 
CHEMBL442201

>  <standardized_canonical_smiles>  (26) 
CC(C)C1NCCc2ccc(NC(=O)c3ccc4cc(C(=N)N)ccc4c3)cc21

$$$$
4FUB_SIN_A_303
     RDKit          3D

  8  7  0  0  0  0  0  0  0  0999 V2000
   -5.1100  -11.0720    7.5170 C   0  0  0  0  0  0  0  0  0  0  0  0
   -5.9800  -11.8570    7.1560 O   0  0  0  0  0  0  0  0  0  0  0  0
   -4.5110  -11.2110    8.7370 O   0  0  0  0  0  0  0  0  0  0  0  0
   -4.6790   -9.9500    6.5900 C   0  0  0  0  0  0  0  0  0  0  0  0
   -3.6690   -9.0280    7.2980 C   0  0  0  0  0  0  0  0  0  0  0  0
   -2.3010   -9.6290    7.2050 C   0  0  0  0  0  0  0  0  0  0  0  0
   -2.0560  -10.6480    6.3450 O   0  0  0  0  0  0  0  0  0  0  0  0
   -1.4080   -9.1840    7.9210 O   0  0  0  0  0  0  0  0  0  0  0  0
  2  1  2  0
  3  1  1  0
  4  1  1  0
  5  4  1  0
  6  5  1  0
  7  6  2  0
  8  6  1  0
A    1
C1
A    2
O1
A    3
O2
A    4
C2
A    5
C3
A    6
C4
A    7
O3
A    8
O4
M  END
>  <Id>  (27) 
4FUB_SIN_A_303

>  <ChainId>  (27) 
A

>  <AsymId>  (27) 
D

>  <SeqNum>  (27) 
303

>  <Name>  (27) 
SUCCINIC ACID

>  <SystematicName>  (27) 
butanedioic acid

>  <Synonyms>  (27) 


>  <Type>  (27) 
NON-POLYMER

>  <Formula>  (27) 
C4 H6 O4

>  <ObservedFormula>  (27) 
C4 O4

>  <MolecularWeight>  (27) 
118.088

>  <ModifiedDate>  (27) 
2011-06-04

>  <Parent>  (27) 


>  <OneLetterCode>  (27) 


>  <SubcomponentList>  (27) 


>  <AmbiguousFlag>  (27) 
N

>  <InsertionCode>  (27) 


>  <InstanceId>  (27) 
4FUB_SIN_A_303

>  <ChemCompId>  (27) 
SIN

>  <PdbId>  (27) 
4FUB

>  <ResidueNumber>  (27) 
303

>  <InChI>  (27) 
InChI=1S/C4H6O4/c5-3(6)1-2-4(7)8/h1-2H2,(H,5,6)(H,7,8)

>  <InChIKey>  (27) 
KDYFGRWQOYBRFD-UHFFFAOYSA-N

>  <SMILES>  (27) 
C(CC(=O)O)C(=O)O

>  <MissingHeavyAtoms>  (27) 
0

>  <Model>  (27) 
1

>  <AltIds>  (27) 


>  <pKI>  (27) 
7.62

>  <ChemblID>  (27) 
CHEMBL442201

>  <standardized_canonical_smiles>  (27) 
CC(C)C1NCCc2ccc(NC(=O)c3ccc4cc(C(=N)N)ccc4c3)cc21

$$$$
4MNX_GOL_A_303
     RDKit          3D

  6  5  0  0  0  0  0  0  0  0999 V2000
   11.6600   19.1300  -12.8430 C   0  0  0  0  0  0  0  0  0  0  0  0
   13.0510   19.1760  -13.1830 O   0  0  0  0  0  0  0  0  0  0  0  0
   10.8610   19.2670  -14.1180 C   0  0  0  0  0  0  0  0  0  0  0  0
   11.6930   18.8940  -15.2170 O   0  0  0  0  0  0  0  0  0  0  0  0
    9.6410   18.3620  -14.1060 C   0  0  0  0  0  0  0  0  0  0  0  0
    8.4720   18.9600  -13.5320 O   0  0  0  0  0  0  0  0  0  0  0  0
  2  1  1  0
  3  1  1  0
  4  3  1  0
  5  3  1  0
  6  5  1  0
A    1
C1
A    2
O1
A    3
C2
A    4
O2
A    5
C3
A    6
O3
M  END
>  <Id>  (28) 
4MNX_GOL_A_303

>  <ChainId>  (28) 
A

>  <AsymId>  (28) 
E

>  <SeqNum>  (28) 
303

>  <Name>  (28) 
GLYCEROL

>  <SystematicName>  (28) 
propane-1,2,3-triol

>  <Synonyms>  (28) 
GLYCERIN; PROPANE-1,2,3-TRIOL

>  <Type>  (28) 
NON-POLYMER

>  <Formula>  (28) 
C3 H8 O3

>  <ObservedFormula>  (28) 
C3 O3

>  <MolecularWeight>  (28) 
92.094

>  <ModifiedDate>  (28) 
2011-06-04

>  <Parent>  (28) 


>  <OneLetterCode>  (28) 


>  <SubcomponentList>  (28) 


>  <AmbiguousFlag>  (28) 
N

>  <InsertionCode>  (28) 


>  <InstanceId>  (28) 
4MNX_GOL_A_303

>  <ChemCompId>  (28) 
GOL

>  <PdbId>  (28) 
4MNX

>  <ResidueNumber>  (28) 
303

>  <InChI>  (28) 
InChI=1S/C3H8O3/c4-1-3(6)2-5/h3-6H,1-2H2

>  <InChIKey>  (28) 
PEDCQBHIVMGVHV-UHFFFAOYSA-N

>  <SMILES>  (28) 
C(C(CO)O)O

>  <MissingHeavyAtoms>  (28) 
0

>  <Model>  (28) 
1

>  <AltIds>  (28) 


>  <pKI>  (28) 
7.62

>  <ChemblID>  (28) 
CHEMBL442201

>  <standardized_canonical_smiles>  (28) 
CC(C)C1NCCc2ccc(NC(=O)c3ccc4cc(C(=N)N)ccc4c3)cc21

$$$$
4OS7_SO4_A_303
     RDKit          3D

  5  4  0  0  0  0  0  0  0  0999 V2000
   14.0400  -19.5690  -13.3290 S   0  0  0  0  0  0  0  0  0  0  0  0
   15.3850  -18.9460  -13.4100 O   0  0  0  0  0  0  0  0  0  0  0  0
   13.4730  -19.7150  -14.6930 O   0  0  0  0  0  0  0  0  0  0  0  0
   13.1210  -18.7430  -12.5160 O   0  0  0  0  0  0  0  0  0  0  0  0
   14.1700  -20.9010  -12.6960 O   0  0  0  0  0  0  0  0  0  0  0  0
  2  1  2  0
  3  1  2  0
  4  1  1  0
  5  1  1  0
M  CHG  2   4  -1   5  -1
A    1
S
A    2
O1
A    3
O2
A    4
O3
A    5
O4
M  END
>  <Id>  (29) 
4OS7_SO4_A_303

>  <ChainId>  (29) 
A

>  <AsymId>  (29) 
E

>  <SeqNum>  (29) 
303

>  <Name>  (29) 
SULFATE ION

>  <SystematicName>  (29) 
sulfate

>  <Synonyms>  (29) 


>  <Type>  (29) 
NON-POLYMER

>  <Formula>  (29) 
O4 S

>  <ObservedFormula>  (29) 
S O4

>  <MolecularWeight>  (29) 
96.063

>  <ModifiedDate>  (29) 
2011-06-04

>  <Parent>  (29) 


>  <OneLetterCode>  (29) 


>  <SubcomponentList>  (29) 


>  <AmbiguousFlag>  (29) 
N

>  <InsertionCode>  (29) 


>  <InstanceId>  (29) 
4OS7_SO4_A_303

>  <ChemCompId>  (29) 
SO4

>  <PdbId>  (29) 
4OS7

>  <ResidueNumber>  (29) 
303

>  <InChI>  (29) 
InChI=1S/H2O4S/c1-5(2,3)4/h(H2,1,2,3,4)/p-2

>  <InChIKey>  (29) 
QAOWNCQODCNURD-UHFFFAOYSA-L

>  <SMILES>  (29) 
[O-]S(=O)(=O)[O-]

>  <MissingHeavyAtoms>  (29) 
0

>  <Model>  (29) 
1

>  <AltIds>  (29) 


>  <pKI>  (29) 
7.62

>  <ChemblID>  (29) 
CHEMBL442201

>  <standardized_canonical_smiles>  (29) 
CC(C)C1NCCc2ccc(NC(=O)c3ccc4cc(C(=N)N)ccc4c3)cc21

$$$$
4FU9_SO4_A_303
     RDKit          3D

  5  4  0  0  0  0  0  0  0  0999 V2000
  -10.5370  -14.9410   29.6110 S   0  0  0  0  0  0  0  0  0  0  0  0
  -11.8330  -15.1400   30.3110 O   0  0  0  0  0  0  0  0  0  0  0  0
  -10.0140  -16.2600   29.1760 O   0  0  0  0  0  0  0  0  0  0  0  0
  -10.7420  -14.0170   28.4410 O   0  0  0  0  0  0  0  0  0  0  0  0
   -9.5780  -14.3400   30.5540 O   0  0  0  0  0  0  0  0  0  0  0  0
  2  1  2  0
  3  1  2  0
  4  1  1  0
  5  1  1  0
M  CHG  2   4  -1   5  -1
A    1
S
A    2
O1
A    3
O2
A    4
O3
A    5
O4
M  END
>  <Id>  (30) 
4FU9_SO4_A_303

>  <ChainId>  (30) 
A

>  <AsymId>  (30) 
D

>  <SeqNum>  (30) 
303

>  <Name>  (30) 
SULFATE ION

>  <SystematicName>  (30) 
sulfate

>  <Synonyms>  (30) 


>  <Type>  (30) 
NON-POLYMER

>  <Formula>  (30) 
O4 S

>  <ObservedFormula>  (30) 
S O4

>  <MolecularWeight>  (30) 
96.063

>  <ModifiedDate>  (30) 
2011-06-04

>  <Parent>  (30) 


>  <OneLetterCode>  (30) 


>  <SubcomponentList>  (30) 


>  <AmbiguousFlag>  (30) 
N

>  <InsertionCode>  (30) 


>  <InstanceId>  (30) 
4FU9_SO4_A_303

>  <ChemCompId>  (30) 
SO4

>  <PdbId>  (30) 
4FU9

>  <ResidueNumber>  (30) 
303

>  <InChI>  (30) 
InChI=1S/H2O4S/c1-5(2,3)4/h(H2,1,2,3,4)/p-2

>  <InChIKey>  (30) 
QAOWNCQODCNURD-UHFFFAOYSA-L

>  <SMILES>  (30) 
[O-]S(=O)(=O)[O-]

>  <MissingHeavyAtoms>  (30) 
0

>  <Model>  (30) 
1

>  <AltIds>  (30) 


>  <pKI>  (30) 
7.62

>  <ChemblID>  (30) 
CHEMBL442201

>  <standardized_canonical_smiles>  (30) 
CC(C)C1NCCc2ccc(NC(=O)c3ccc4cc(C(=N)N)ccc4c3)cc21

$$$$
4FU8_SIN_A_303
     RDKit          3D

  8  7  0  0  0  0  0  0  0  0999 V2000
  -32.1750  -21.9010  -18.2290 C   0  0  0  0  0  0  0  0  0  0  0  0
  -31.0930  -22.4220  -18.2870 O   0  0  0  0  0  0  0  0  0  0  0  0
  -33.0640  -22.2590  -19.1270 O   0  0  0  0  0  0  0  0  0  0  0  0
  -32.5230  -20.8940  -17.1620 C   0  0  0  0  0  0  0  0  0  0  0  0
  -32.3510  -19.4660  -17.6760 C   0  0  0  0  0  0  0  0  0  0  0  0
  -32.5850  -18.4810  -16.5520 C   0  0  0  0  0  0  0  0  0  0  0  0
  -31.7780  -17.6070  -16.3320 O   0  0  0  0  0  0  0  0  0  0  0  0
  -33.6900  -18.5680  -15.7940 O   0  0  0  0  0  0  0  0  0  0  0  0
  2  1  2  0
  3  1  1  0
  4  1  1  0
  5  4  1  0
  6  5  1  0
  7  6  2  0
  8  6  1  0
A    1
C1
A    2
O1
A    3
O2
A    4
C2
A    5
C3
A    6
C4
A    7
O3
A    8
O4
M  END
>  <Id>  (31) 
4FU8_SIN_A_303

>  <ChainId>  (31) 
A

>  <AsymId>  (31) 
D

>  <SeqNum>  (31) 
303

>  <Name>  (31) 
SUCCINIC ACID

>  <SystematicName>  (31) 
butanedioic acid

>  <Synonyms>  (31) 


>  <Type>  (31) 
NON-POLYMER

>  <Formula>  (31) 
C4 H6 O4

>  <ObservedFormula>  (31) 
C4 O4

>  <MolecularWeight>  (31) 
118.088

>  <ModifiedDate>  (31) 
2011-06-04

>  <Parent>  (31) 


>  <OneLetterCode>  (31) 


>  <SubcomponentList>  (31) 


>  <AmbiguousFlag>  (31) 
N

>  <InsertionCode>  (31) 


>  <InstanceId>  (31) 
4FU8_SIN_A_303

>  <ChemCompId>  (31) 
SIN

>  <PdbId>  (31) 
4FU8

>  <ResidueNumber>  (31) 
303

>  <InChI>  (31) 
InChI=1S/C4H6O4/c5-3(6)1-2-4(7)8/h1-2H2,(H,5,6)(H,7,8)

>  <InChIKey>  (31) 
KDYFGRWQOYBRFD-UHFFFAOYSA-N

>  <SMILES>  (31) 
C(CC(=O)O)C(=O)O

>  <MissingHeavyAtoms>  (31) 
0

>  <Model>  (31) 
1

>  <AltIds>  (31) 


>  <pKI>  (31) 
7.62

>  <ChemblID>  (31) 
CHEMBL442201

>  <standardized_canonical_smiles>  (31) 
CC(C)C1NCCc2ccc(NC(=O)c3ccc4cc(C(=N)N)ccc4c3)cc21

$$$$
1O5C_CR9_B_251
     RDKit          3D

 28 31  0  0  0  0  0  0  0  0999 V2000
    9.0020    1.4910   24.6770 C   0  0  0  0  0  0  0  0  0  0  0  0
    9.8640    1.3400   23.5390 C   0  0  0  0  0  0  0  0  0  0  0  0
   10.1700    0.1120   23.0300 F   0  0  0  0  0  0  0  0  0  0  0  0
   10.4530    2.4210   22.8940 C   0  0  0  0  0  0  0  0  0  0  0  0
   10.1720    3.6340   23.4030 C   0  0  0  0  0  0  0  0  0  0  0  0
    9.3730    3.8380   24.4630 C   0  0  0  0  0  0  0  0  0  0  0  0
    8.7640    2.8120   25.1330 C   0  0  0  0  0  0  0  0  0  0  0  0
    8.4260    0.3820   25.3370 C   0  0  0  0  0  0  0  0  0  0  0  0
    8.1470    0.4560   26.6070 N   0  0  0  0  0  0  0  0  0  0  0  0
    8.1560   -0.7490   24.7410 N   0  0  0  0  0  0  0  0  0  0  0  0
   10.5870    4.7790   23.0070 N   0  0  0  0  0  0  0  0  0  0  0  0
    9.2530    5.1110   24.7770 N   0  0  0  0  0  0  0  0  0  0  0  0
   10.0320    5.6180   23.8310 C   0  0  0  0  0  0  0  0  0  0  0  0
   10.2680    7.0030   23.7360 C   0  0  0  0  0  0  0  0  0  0  0  0
    9.8850    7.8860   24.7700 C   0  0  0  0  0  0  0  0  0  0  0  0
   10.1310    9.2490   24.7030 C   0  0  0  0  0  0  0  0  0  0  0  0
   10.7630    9.7800   23.5950 C   0  0  0  0  0  0  0  0  0  0  0  0
   11.1590    8.9310   22.5420 C   0  0  0  0  0  0  0  0  0  0  0  0
   10.9110    7.5780   22.6150 C   0  0  0  0  0  0  0  0  0  0  0  0
   11.3330    6.8450   21.5280 O   0  0  0  0  0  0  0  0  0  0  0  0
   11.8250    9.3430   21.3970 O   0  0  0  0  0  0  0  0  0  0  0  0
   12.1860   11.6150   20.7560 C   0  0  0  0  0  0  0  0  0  0  0  0
   13.0180   11.7970   19.4910 C   0  0  0  0  0  0  0  0  0  0  0  0
   14.4610   12.1430   19.8460 C   0  0  0  0  0  0  0  0  0  0  0  0
   14.9590   11.3970   21.0940 C   0  0  0  0  0  0  0  0  0  0  0  0
   14.1580   10.0860   21.2660 C   0  0  0  0  0  0  0  0  0  0  0  0
   12.7110   10.4360   21.5990 C   0  0  0  0  0  0  0  0  0  0  0  0
   10.7240   11.3220   20.3660 C   0  0  0  0  0  0  0  0  0  0  0  0
  2  1  2  0
  7  1  1  0
  8  1  1  0
  3  2  1  0
  4  2  1  0
  5  4  2  0
  6  5  1  0
 11  5  1  0
  7  6  2  0
 12  6  1  0
  9  8  1  0
 10  8  2  0
 13 11  1  0
 13 12  2  0
 14 13  1  0
 15 14  2  0
 19 14  1  0
 16 15  1  0
 17 16  2  0
 18 17  1  0
 19 18  2  0
 21 18  1  0
 20 19  1  0
 27 21  1  0
 23 22  1  0
 27 22  1  0
 28 22  1  0
 24 23  1  0
 25 24  1  0
 26 25  1  0
 27 26  1  0
M  CHG  2  10   1  20  -1
A    1
C1
A    2
C2
A    3
F2
A    4
C3
A    5
C4
A    6
C5
A    7
C6
A    8
C7
A    9
N1
A   10
N2
A   11
N3
A   12
N4
A   13
C8
A   14
C1'
A   15
C2'
A   16
C3'
A   17
C4'
A   18
C5'
A   19
C6'
A   20
O6'
A   21
O5'
A   22
C1B
A   23
C2B
A   24
C3B
A   25
C4B
A   26
C5B
A   27
C6B
A   28
C1A
M  END
>  <Id>  (32) 
1O5C_CR9_B_251

>  <ChainId>  (32) 
B

>  <AsymId>  (32) 
C

>  <SeqNum>  (32) 
251

>  <Name>  (32) 
2-{5-[AMINO(IMINIO)METHYL]-6-FLUORO-1H-BENZIMIDAZOL-2-YL}-6-[(2-METHYLCYCLOHEXYL)OXY]BENZENOLATE

>  <SystematicName>  (32) 
2-[5-(amino-azaniumylidene-methyl)-6-fluoro-1H-benzimidazol-2-yl]-6-[(1S,2S)-2-methylcyclohexyl]oxy-phenolate

>  <Synonyms>  (32) 
CRA_11092

>  <Type>  (32) 
NON-POLYMER

>  <Formula>  (32) 
C21 H23 F N4 O2

>  <ObservedFormula>  (32) 
C21 F N4 O2

>  <MolecularWeight>  (32) 
382.431

>  <ModifiedDate>  (32) 
2011-06-04

>  <Parent>  (32) 


>  <OneLetterCode>  (32) 


>  <SubcomponentList>  (32) 


>  <AmbiguousFlag>  (32) 
N

>  <InsertionCode>  (32) 


>  <InstanceId>  (32) 
1O5C_CR9_B_251

>  <ChemCompId>  (32) 
CR9

>  <PdbId>  (32) 
1O5C

>  <ResidueNumber>  (32) 
251

>  <InChI>  (32) 
InChI=1S/C21H23FN4O2/c1-11-5-2-3-7-17(11)28-18-8-4-6-12(19(18)27)21-25-15-9-13(20(23)24)14(22)10-16(15)26-21/h4,6,8-11,17,27H,2-3,5,7H2,1H3,(H3,23,24)(H,25,26)/t11-,17-/m0/s1

>  <InChIKey>  (32) 
CMCDWLMEDRBWIR-GTNSWQLSSA-N

>  <SMILES>  (32) 
C[C@H]1CCCC[C@@H]1Oc2cccc(c2[O-])c3[nH]c4cc(c(cc4n3)C(=[NH2+])N)F

>  <MissingHeavyAtoms>  (32) 
0

>  <Model>  (32) 
1

>  <AltIds>  (32) 


>  <pKI>  (32) 
7.96

>  <ChemblID>  (32) 
CHEMBL62807

>  <standardized_canonical_smiles>  (32) 
C[C@H]1CCCC[C@@H]1Oc1cccc(-c2nc3cc(F)c(C(=N)N)cc3[nH]2)c1O

$$$$
1GJ8_133_B_251
     RDKit          3D

 25 27  0  0  0  0  0  0  0  0999 V2000
    8.7020    1.9060   24.7210 C   0  0  0  0  0  0  0  0  0  0  0  0
    9.5020    1.7010   23.5460 C   0  0  0  0  0  0  0  0  0  0  0  0
    9.7230    0.4740   23.0740 F   0  0  0  0  0  0  0  0  0  0  0  0
   10.0890    2.7460   22.8090 C   0  0  0  0  0  0  0  0  0  0  0  0
    9.8940    3.9850   23.3270 C   0  0  0  0  0  0  0  0  0  0  0  0
    9.1430    4.2220   24.4360 C   0  0  0  0  0  0  0  0  0  0  0  0
    8.5610    3.2360   25.1760 C   0  0  0  0  0  0  0  0  0  0  0  0
    8.0960    0.8660   25.4440 C   0  0  0  0  0  0  0  0  0  0  0  0
    7.6220    1.1290   26.6300 N   0  0  0  0  0  0  0  0  0  0  0  0
    7.9690   -0.3410   24.9550 N   0  0  0  0  0  0  0  0  0  0  0  0
   10.2800    5.1330   22.9050 N   0  0  0  0  0  0  0  0  0  0  0  0
    9.0730    5.4870   24.7590 N   0  0  0  0  0  0  0  0  0  0  0  0
    9.7890    5.9750   23.7630 C   0  0  0  0  0  0  0  0  0  0  0  0
   10.0240    7.3300   23.6610 C   0  0  0  0  0  0  0  0  0  0  0  0
    9.6070    8.1950   24.6730 C   0  0  0  0  0  0  0  0  0  0  0  0
    9.8420    9.5420   24.5870 C   0  0  0  0  0  0  0  0  0  0  0  0
   10.4300   10.0580   23.4430 C   0  0  0  0  0  0  0  0  0  0  0  0
   10.8560    9.2200   22.4070 C   0  0  0  0  0  0  0  0  0  0  0  0
   10.6190    7.8690   22.5090 C   0  0  0  0  0  0  0  0  0  0  0  0
   11.0360    7.0530   21.4740 O   0  0  0  0  0  0  0  0  0  0  0  0
   11.4570    9.7000   21.2550 O   0  0  0  0  0  0  0  0  0  0  0  0
   12.2690   10.8580   21.4780 C   0  0  0  0  0  0  0  0  0  0  0  0
   12.8550   11.3540   20.1570 C   0  0  0  0  0  0  0  0  0  0  0  0
   14.1520   10.6070   19.8240 C   0  0  0  0  0  0  0  0  0  0  0  0
   11.8260   11.2150   19.0470 C   0  0  0  0  0  0  0  0  0  0  0  0
  2  1  2  0
  7  1  1  0
  8  1  1  0
  3  2  1  0
  4  2  1  0
  5  4  2  0
  6  5  1  0
 11  5  1  0
  7  6  2  0
 12  6  1  0
  9  8  1  0
 10  8  2  0
 13 11  1  0
 13 12  2  0
 14 13  1  0
 15 14  2  0
 19 14  1  0
 16 15  1  0
 17 16  2  0
 18 17  1  0
 19 18  2  0
 21 18  1  0
 20 19  1  0
 22 21  1  0
 23 22  1  0
 24 23  1  0
 25 23  1  0
A    1
C1
A    2
C2
A    3
F2
A    4
C3
A    5
C4
A    6
C5
A    7
C6
A    8
C7
A    9
N1
A   10
N2
A   11
N3
A   12
N4
A   13
C8
A   14
C1'
A   15
C2'
A   16
C3'
A   17
C4'
A   18
C5'
A   19
C6'
A   20
O6'
A   21
O5'
A   22
C10
A   23
C20
A   24
C30
A   25
C40
M  END
>  <Id>  (33) 
1GJ8_133_B_251

>  <ChainId>  (33) 
B

>  <AsymId>  (33) 
E

>  <SeqNum>  (33) 
251

>  <Name>  (33) 
6-FLUORO-2-(2-HYDROXY-3-ISOBUTOXY-PHENYL)-1H-BENZOIMIDAZOLE-5-CARBOXAMIDINE

>  <SystematicName>  (33) 
6-fluoro-2-[2-hydroxy-3-(2-methylpropoxy)phenyl]-1H-benzimidazole-5-carboximidamide

>  <Synonyms>  (33) 


>  <Type>  (33) 
NON-POLYMER

>  <Formula>  (33) 
C18 H19 F N4 O2

>  <ObservedFormula>  (33) 
C18 F N4 O2

>  <MolecularWeight>  (33) 
342.367

>  <ModifiedDate>  (33) 
2011-06-04

>  <Parent>  (33) 


>  <OneLetterCode>  (33) 


>  <SubcomponentList>  (33) 


>  <AmbiguousFlag>  (33) 
N

>  <InsertionCode>  (33) 


>  <InstanceId>  (33) 
1GJ8_133_B_251

>  <ChemCompId>  (33) 
133

>  <PdbId>  (33) 
1GJ8

>  <ResidueNumber>  (33) 
251

>  <InChI>  (33) 
InChI=1S/C18H19FN4O2/c1-9(2)8-25-15-5-3-4-10(16(15)24)18-22-13-6-11(17(20)21)12(19)7-14(13)23-18/h3-7,9,24H,8H2,1-2H3,(H3,20,21)(H,22,23)

>  <InChIKey>  (33) 
NSUDDASMRZSVON-UHFFFAOYSA-N

>  <SMILES>  (33) 
[H]/N=C(\c1cc2c(cc1F)[nH]c(n2)c3cccc(c3O)OCC(C)C)/N

>  <MissingHeavyAtoms>  (33) 
0

>  <Model>  (33) 
1

>  <AltIds>  (33) 


>  <pKI>  (33) 
6.72

>  <ChemblID>  (33) 
CHEMBL62836

>  <standardized_canonical_smiles>  (33) 
CC(C)COc1cccc(-c2nc3cc(F)c(C(=N)N)cc3[nH]2)c1O

$$$$
1O3P_655_B_251
     RDKit          3D

 25 28  0  0  0  0  0  0  0  0999 V2000
    8.7880    1.4610   24.6060 C   0  0  0  0  0  0  0  0  0  0  0  0
    9.5720    1.3020   23.4300 C   0  0  0  0  0  0  0  0  0  0  0  0
   10.2020    2.3670   22.8100 C   0  0  0  0  0  0  0  0  0  0  0  0
    9.9720    3.6110   23.3310 C   0  0  0  0  0  0  0  0  0  0  0  0
    9.2090    3.8120   24.4350 C   0  0  0  0  0  0  0  0  0  0  0  0
    8.5920    2.7660   25.0710 C   0  0  0  0  0  0  0  0  0  0  0  0
    8.1880    0.3730   25.2350 C   0  0  0  0  0  0  0  0  0  0  0  0
    7.7520    0.4860   26.4730 N   0  0  0  0  0  0  0  0  0  0  0  0
    8.0910   -0.7720   24.6100 N   0  0  0  0  0  0  0  0  0  0  0  0
   10.3730    4.7820   22.9850 N   0  0  0  0  0  0  0  0  0  0  0  0
    9.1170    5.0700   24.7840 N   0  0  0  0  0  0  0  0  0  0  0  0
    9.8770    5.6220   23.8530 C   0  0  0  0  0  0  0  0  0  0  0  0
   10.1130    6.9650   23.7750 C   0  0  0  0  0  0  0  0  0  0  0  0
    9.7870    7.8200   24.8490 C   0  0  0  0  0  0  0  0  0  0  0  0
   10.0400    9.1930   24.7850 C   0  0  0  0  0  0  0  0  0  0  0  0
   10.6290    9.7250   23.6570 C   0  0  0  0  0  0  0  0  0  0  0  0
   10.9610    8.8870   22.5700 C   0  0  0  0  0  0  0  0  0  0  0  0
   11.5570    9.3300   21.3960 O   0  0  0  0  0  0  0  0  0  0  0  0
   10.7210    7.5300   22.6460 C   0  0  0  0  0  0  0  0  0  0  0  0
   11.1000    6.7680   21.5450 O   0  0  0  0  0  0  0  0  0  0  0  0
   11.8090   11.0280   19.7310 C   0  0  0  0  0  0  0  0  0  0  0  0
   11.8600   10.7160   21.2250 C   0  0  0  0  0  0  0  0  0  0  0  0
   13.2910   10.8790   21.6920 C   0  0  0  0  0  0  0  0  0  0  0  0
   14.1130   11.3710   20.5140 C   0  0  0  0  0  0  0  0  0  0  0  0
   13.2440   11.2120   19.2770 C   0  0  0  0  0  0  0  0  0  0  0  0
  2  1  2  0
  6  1  1  0
  7  1  1  0
  3  2  1  0
  4  3  2  0
  5  4  1  0
 10  4  1  0
  6  5  2  0
 11  5  1  0
  8  7  1  0
  9  7  2  0
 12 10  1  0
 12 11  2  0
 13 12  1  0
 14 13  2  0
 19 13  1  0
 15 14  1  0
 16 15  2  0
 17 16  1  0
 18 17  1  0
 19 17  2  0
 22 18  1  0
 20 19  1  0
 22 21  1  0
 25 21  1  0
 23 22  1  0
 24 23  1  0
 25 24  1  0
M  CHG  2   9   1  20  -1
A    1
C1
A    2
C2
A    3
C3
A    4
C4
A    5
C5
A    6
C6
A    7
C7
A    8
N1
A    9
N2
A   10
N3
A   11
N4
A   12
C8
A   13
C1'
A   14
C2'
A   15
C3'
A   16
C4'
A   17
C5'
A   18
O5'
A   19
C6'
A   20
O6'
A   21
C1B
A   22
C2B
A   23
C3B
A   24
C4B
A   25
C5B
M  END
>  <Id>  (34) 
1O3P_655_B_251

>  <ChainId>  (34) 
B

>  <AsymId>  (34) 
E

>  <SeqNum>  (34) 
251

>  <Name>  (34) 
2-{5-[AMINO(IMINIO)METHYL]-1H-BENZIMIDAZOL-2-YL}-6-(CYCLOPENTYLOXY)BENZENOLATE

>  <SystematicName>  (34) 
2-[5-(amino-azaniumylidene-methyl)-1H-benzimidazol-2-yl]-6-cyclopentyloxy-phenolate

>  <Synonyms>  (34) 
CRA_10655

>  <Type>  (34) 
NON-POLYMER

>  <Formula>  (34) 
C19 H20 N4 O2

>  <ObservedFormula>  (34) 
C19 N4 O2

>  <MolecularWeight>  (34) 
336.388

>  <ModifiedDate>  (34) 
2011-06-04

>  <Parent>  (34) 


>  <OneLetterCode>  (34) 


>  <SubcomponentList>  (34) 


>  <AmbiguousFlag>  (34) 
N

>  <InsertionCode>  (34) 


>  <InstanceId>  (34) 
1O3P_655_B_251

>  <ChemCompId>  (34) 
655

>  <PdbId>  (34) 
1O3P

>  <ResidueNumber>  (34) 
251

>  <InChI>  (34) 
InChI=1S/C19H20N4O2/c20-18(21)11-8-9-14-15(10-11)23-19(22-14)13-6-3-7-16(17(13)24)25-12-4-1-2-5-12/h3,6-10,12,24H,1-2,4-5H2,(H3,20,21)(H,22,23)

>  <InChIKey>  (34) 
WCFWDBPDMBXMTQ-UHFFFAOYSA-N

>  <SMILES>  (34) 
c1cc(c(c(c1)OC2CCCC2)[O-])c3[nH]c4ccc(cc4n3)C(=[NH2+])N

>  <MissingHeavyAtoms>  (34) 
0

>  <Model>  (34) 
1

>  <AltIds>  (34) 


>  <pKI>  (34) 
6.66

>  <ChemblID>  (34) 
CHEMBL303992

>  <standardized_canonical_smiles>  (34) 
N=C(N)c1ccc2nc(-c3cccc(OC4CCCC4)c3O)[nH]c2c1

$$$$
1GJA_135_B_251
     RDKit          3D

 19 20  0  0  0  0  0  0  0  0999 V2000
    8.6090    0.5270   25.3730 C   0  0  0  0  0  0  0  0  0  0  0  0
    9.4400    0.6780   24.2510 C   0  0  0  0  0  0  0  0  0  0  0  0
    9.8880    1.9150   23.8390 C   0  0  0  0  0  0  0  0  0  0  0  0
    9.5050    3.0280   24.5500 C   0  0  0  0  0  0  0  0  0  0  0  0
    8.6900    2.9550   25.6560 C   0  0  0  0  0  0  0  0  0  0  0  0
    8.2410    1.7030   26.0610 C   0  0  0  0  0  0  0  0  0  0  0  0
    8.1680   -0.7360   25.7880 C   0  0  0  0  0  0  0  0  0  0  0  0
    7.5160   -0.8470   26.9160 N   0  0  0  0  0  0  0  0  0  0  0  0
    8.4100   -1.7900   25.0590 N   0  0  0  0  0  0  0  0  0  0  0  0
   10.0240    4.1440   24.0940 N   0  0  0  0  0  0  0  0  0  0  0  0
    9.5920    5.3670   24.3100 C   0  0  0  0  0  0  0  0  0  0  0  0
    8.6100    5.6680   24.9770 O   0  0  0  0  0  0  0  0  0  0  0  0
   10.3990    6.3420   23.6500 C   0  0  0  0  0  0  0  0  0  0  0  0
    9.9210    7.6630   23.6150 C   0  0  0  0  0  0  0  0  0  0  0  0
   10.6100    8.6750   22.9700 C   0  0  0  0  0  0  0  0  0  0  0  0
   11.8340    8.4290   22.3750 C   0  0  0  0  0  0  0  0  0  0  0  0
   12.3510    7.1460   22.3840 C   0  0  0  0  0  0  0  0  0  0  0  0
   11.6740    6.1070   23.0230 C   0  0  0  0  0  0  0  0  0  0  0  0
   12.3300    4.8830   22.9660 O   0  0  0  0  0  0  0  0  0  0  0  0
  2  1  2  0
  6  1  1  0
  7  1  1  0
  3  2  1  0
  4  3  2  0
  5  4  1  0
 10  4  1  0
  6  5  2  0
  8  7  1  0
  9  7  2  0
 11 10  1  0
 12 11  2  0
 13 11  1  0
 14 13  2  0
 18 13  1  0
 15 14  1  0
 16 15  2  0
 17 16  1  0
 18 17  2  0
 19 18  1  0
A    1
C1
A    2
C2
A    3
C3
A    4
C4
A    5
C5
A    6
C6
A    7
C7
A    8
N1
A    9
N2
A   10
N3
A   11
C8
A   12
O8
A   13
C9
A   14
C10
A   15
C11
A   16
C12
A   17
C13
A   18
C14
A   19
O14
M  END
>  <Id>  (35) 
1GJA_135_B_251

>  <ChainId>  (35) 
B

>  <AsymId>  (35) 
E

>  <SeqNum>  (35) 
251

>  <Name>  (35) 
N-(4-CARBAMIMIDOYL-PHENYL)-2-HYDROXY-BENZAMIDE

>  <SystematicName>  (35) 
N-(4-carbamimidoylphenyl)-2-hydroxy-benzamide

>  <Synonyms>  (35) 


>  <Type>  (35) 
NON-POLYMER

>  <Formula>  (35) 
C14 H13 N3 O2

>  <ObservedFormula>  (35) 
C14 N3 O2

>  <MolecularWeight>  (35) 
255.272

>  <ModifiedDate>  (35) 
2011-06-04

>  <Parent>  (35) 


>  <OneLetterCode>  (35) 


>  <SubcomponentList>  (35) 


>  <AmbiguousFlag>  (35) 
N

>  <InsertionCode>  (35) 


>  <InstanceId>  (35) 
1GJA_135_B_251

>  <ChemCompId>  (35) 
135

>  <PdbId>  (35) 
1GJA

>  <ResidueNumber>  (35) 
251

>  <InChI>  (35) 
InChI=1S/C14H13N3O2/c15-13(16)9-5-7-10(8-6-9)17-14(19)11-3-1-2-4-12(11)18/h1-8,18H,(H3,15,16)(H,17,19)

>  <InChIKey>  (35) 
MYHDBRFFPZXDMX-UHFFFAOYSA-N

>  <SMILES>  (35) 
[H]/N=C(\c1ccc(cc1)NC(=O)c2ccccc2O)/N

>  <MissingHeavyAtoms>  (35) 
0

>  <Model>  (35) 
1

>  <AltIds>  (35) 


>  <pKI>  (35) 
5.57

>  <ChemblID>  (35) 
CHEMBL64708

>  <standardized_canonical_smiles>  (35) 
N=C(N)c1ccc(NC(=O)c2ccccc2O)cc1

$$$$
1GJD_136_B_251
     RDKit          3D

 22 23  0  0  0  0  0  0  0  0999 V2000
    8.4240    0.4770   25.4380 C   0  0  0  0  0  0  0  0  0  0  0  0
    8.6750    0.7880   24.0770 C   0  0  0  0  0  0  0  0  0  0  0  0
    8.2710   -0.3910   22.7950 Cl  0  0  0  0  0  0  0  0  0  0  0  0
    9.2100    2.0250   23.6960 C   0  0  0  0  0  0  0  0  0  0  0  0
    9.4780    2.9400   24.6910 C   0  0  0  0  0  0  0  0  0  0  0  0
    9.2400    2.6860   26.0310 C   0  0  0  0  0  0  0  0  0  0  0  0
    8.7190    1.4630   26.3900 C   0  0  0  0  0  0  0  0  0  0  0  0
    7.9660   -0.7630   25.8710 C   0  0  0  0  0  0  0  0  0  0  0  0
    7.1920   -0.8390   26.9230 N   0  0  0  0  0  0  0  0  0  0  0  0
    8.3340   -1.8370   25.2320 N   0  0  0  0  0  0  0  0  0  0  0  0
   10.0210    4.0990   24.4140 N   0  0  0  0  0  0  0  0  0  0  0  0
    9.5730    5.2520   24.8630 C   0  0  0  0  0  0  0  0  0  0  0  0
    8.5730    5.3300   25.5720 O   0  0  0  0  0  0  0  0  0  0  0  0
   10.3470    6.3850   24.4390 C   0  0  0  0  0  0  0  0  0  0  0  0
   10.0010    7.6750   24.9160 C   0  0  0  0  0  0  0  0  0  0  0  0
   10.7100    8.8310   24.5700 C   0  0  0  0  0  0  0  0  0  0  0  0
   10.3610   10.2260   25.0940 C   0  0  0  0  0  0  0  0  0  0  0  0
   11.7910    8.7310   23.7280 C   0  0  0  0  0  0  0  0  0  0  0  0
   12.1880    7.5100   23.2170 C   0  0  0  0  0  0  0  0  0  0  0  0
   13.7640    7.5300   21.9140 I   0  0  0  0  0  0  0  0  0  0  0  0
   11.4910    6.3340   23.5630 C   0  0  0  0  0  0  0  0  0  0  0  0
   11.9890    5.1500   23.0430 O   0  0  0  0  0  0  0  0  0  0  0  0
  2  1  2  0
  7  1  1  0
  8  1  1  0
  3  2  1  0
  4  2  1  0
  5  4  2  0
  6  5  1  0
 11  5  1  0
  7  6  2  0
  9  8  1  0
 10  8  2  0
 12 11  1  0
 13 12  2  0
 14 12  1  0
 15 14  2  0
 21 14  1  0
 16 15  1  0
 17 16  1  0
 18 16  2  0
 19 18  1  0
 20 19  1  0
 21 19  2  0
 22 21  1  0
A    1
C1
A    2
C2
A    3
CL2
A    4
C3
A    5
C4
A    6
C5
A    7
C6
A    8
C7
A    9
N1
A   10
N2
A   11
N3
A   12
C8
A   13
O8
A   14
C9
A   15
C10
A   16
C11
A   17
C21
A   18
C12
A   19
C13
A   20
I13
A   21
C14
A   22
O14
M  END
>  <Id>  (36) 
1GJD_136_B_251

>  <ChainId>  (36) 
B

>  <AsymId>  (36) 
E

>  <SeqNum>  (36) 
251

>  <Name>  (36) 
N-(4-CARBAMIMIDOYL-3-CHORO-PHENYL)-2-HYDROXY-3-IODO-5-METHYL-BENZAMIDE

>  <SystematicName>  (36) 
N-(4-carbamimidoyl-3-chloro-phenyl)-2-hydroxy-3-iodo-5-methyl-benzamide

>  <Synonyms>  (36) 


>  <Type>  (36) 
NON-POLYMER

>  <Formula>  (36) 
C15 H13 Cl I N3 O2

>  <ObservedFormula>  (36) 
C15 Cl I N3 O2

>  <MolecularWeight>  (36) 
429.64

>  <ModifiedDate>  (36) 
2011-06-04

>  <Parent>  (36) 


>  <OneLetterCode>  (36) 


>  <SubcomponentList>  (36) 


>  <AmbiguousFlag>  (36) 
N

>  <InsertionCode>  (36) 


>  <InstanceId>  (36) 
1GJD_136_B_251

>  <ChemCompId>  (36) 
136

>  <PdbId>  (36) 
1GJD

>  <ResidueNumber>  (36) 
251

>  <InChI>  (36) 
InChI=1S/C15H13ClIN3O2/c1-7-4-10(13(21)12(17)5-7)15(22)20-8-2-3-9(14(18)19)11(16)6-8/h2-6,21H,1H3,(H3,18,19)(H,20,22)

>  <InChIKey>  (36) 
QKGFTDAISIBIBV-UHFFFAOYSA-N

>  <SMILES>  (36) 
[H]/N=C(\c1ccc(cc1Cl)NC(=O)c2cc(cc(c2O)I)C)/N

>  <MissingHeavyAtoms>  (36) 
0

>  <Model>  (36) 
1

>  <AltIds>  (36) 


>  <pKI>  (36) 
5.22

>  <ChemblID>  (36) 
CHEMBL62897

>  <standardized_canonical_smiles>  (36) 
Cc1cc(I)c(O)c(C(=O)Nc2ccc(C(=N)N)c(Cl)c2)c1

$$$$
1O5A_696_B_251
     RDKit          3D

 25 28  0  0  0  0  0  0  0  0999 V2000
    8.8380    1.4080   24.7320 C   0  0  0  0  0  0  0  0  0  0  0  0
    9.5770    1.2570   23.5180 C   0  0  0  0  0  0  0  0  0  0  0  0
   10.1720    2.3630   22.8700 C   0  0  0  0  0  0  0  0  0  0  0  0
   10.0190    3.6070   23.4440 C   0  0  0  0  0  0  0  0  0  0  0  0
    9.3150    3.7560   24.6070 C   0  0  0  0  0  0  0  0  0  0  0  0
    8.7160    2.6960   25.2720 C   0  0  0  0  0  0  0  0  0  0  0  0
    8.2460    0.3110   25.4050 C   0  0  0  0  0  0  0  0  0  0  0  0
    7.8690    0.4230   26.6500 N   0  0  0  0  0  0  0  0  0  0  0  0
    8.0680   -0.8270   24.7980 N   0  0  0  0  0  0  0  0  0  0  0  0
   10.4730    4.7830   23.0820 N   0  0  0  0  0  0  0  0  0  0  0  0
    9.3530    5.0680   24.9460 C   0  0  0  0  0  0  0  0  0  0  0  0
   10.0970    5.6970   23.9540 C   0  0  0  0  0  0  0  0  0  0  0  0
   10.2890    7.0770   23.8120 C   0  0  0  0  0  0  0  0  0  0  0  0
    9.9050    7.9410   24.8400 C   0  0  0  0  0  0  0  0  0  0  0  0
   10.0830    9.3080   24.7200 C   0  0  0  0  0  0  0  0  0  0  0  0
   10.6510    9.8240   23.5680 C   0  0  0  0  0  0  0  0  0  0  0  0
   11.0550    8.9920   22.5170 C   0  0  0  0  0  0  0  0  0  0  0  0
   10.8670    7.6080   22.6410 C   0  0  0  0  0  0  0  0  0  0  0  0
   11.2590    6.7530   21.6380 O   0  0  0  0  0  0  0  0  0  0  0  0
   11.6950    9.6290   21.4470 C   0  0  0  0  0  0  0  0  0  0  0  0
   12.9140    9.1540   20.9830 C   0  0  0  0  0  0  0  0  0  0  0  0
   13.6140    9.8380   19.9820 C   0  0  0  0  0  0  0  0  0  0  0  0
   13.0840   10.9980   19.4470 C   0  0  0  0  0  0  0  0  0  0  0  0
   11.8650   11.4590   19.9100 C   0  0  0  0  0  0  0  0  0  0  0  0
   11.1790   10.7870   20.8920 C   0  0  0  0  0  0  0  0  0  0  0  0
  2  1  2  0
  6  1  1  0
  7  1  1  0
  3  2  1  0
  4  3  2  0
  5  4  1  0
 10  4  1  0
  6  5  2  0
 11  5  1  0
  8  7  1  0
  9  7  2  0
 12 10  1  0
 12 11  2  0
 13 12  1  0
 14 13  2  0
 18 13  1  0
 15 14  1  0
 16 15  2  0
 17 16  1  0
 18 17  2  0
 20 17  1  0
 19 18  1  0
 21 20  2  0
 25 20  1  0
 22 21  1  0
 23 22  2  0
 24 23  1  0
 25 24  2  0
M  CHG  2   9   1  19  -1
A    1
C1
A    2
C2
A    3
C3
A    4
C4
A    5
C5
A    6
C6
A    7
C7
A    8
N1
A    9
N2
A   10
N3
A   11
CN4
A   12
C8
A   13
C1'
A   14
C2'
A   15
C3'
A   16
C4'
A   17
C5'
A   18
C6'
A   19
O6'
A   20
C1B
A   21
C2B
A   22
C3B
A   23
C4B
A   24
C5B
A   25
C6B
M  END
>  <Id>  (37) 
1O5A_696_B_251

>  <ChainId>  (37) 
B

>  <AsymId>  (37) 
C

>  <SeqNum>  (37) 
251

>  <Name>  (37) 
3-{5-[AMINO(IMINIO)METHYL]-1H-INDOL-2-YL}-1,1'-BIPHENYL-2-OLATE

>  <SystematicName>  (37) 
2-[5-(amino-azaniumylidene-methyl)-1H-indol-2-yl]-6-phenyl-phenolate

>  <Synonyms>  (37) 
CRA_8696

>  <Type>  (37) 
NON-POLYMER

>  <Formula>  (37) 
C21 H17 N3 O

>  <ObservedFormula>  (37) 
C21 N3 O

>  <MolecularWeight>  (37) 
327.379

>  <ModifiedDate>  (37) 
2011-06-04

>  <Parent>  (37) 


>  <OneLetterCode>  (37) 


>  <SubcomponentList>  (37) 


>  <AmbiguousFlag>  (37) 
N

>  <InsertionCode>  (37) 


>  <InstanceId>  (37) 
1O5A_696_B_251

>  <ChemCompId>  (37) 
696

>  <PdbId>  (37) 
1O5A

>  <ResidueNumber>  (37) 
251

>  <InChI>  (37) 
InChI=1S/C21H17N3O/c22-21(23)14-9-10-18-15(11-14)12-19(24-18)17-8-4-7-16(20(17)25)13-5-2-1-3-6-13/h1-12,24-25H,(H3,22,23)

>  <InChIKey>  (37) 
GAVRMVQHHVMXFD-UHFFFAOYSA-N

>  <SMILES>  (37) 
c1ccc(cc1)c2cccc(c2[O-])c3cc4cc(ccc4[nH]3)C(=[NH2+])N

>  <MissingHeavyAtoms>  (37) 
0

>  <Model>  (37) 
1

>  <AltIds>  (37) 


>  <pKI>  (37) 
8.1

>  <ChemblID>  (37) 
CHEMBL96433

>  <standardized_canonical_smiles>  (37) 
N=C(N)c1ccc2[nH]c(-c3cccc(-c4ccccc4)c3O)cc2c1

$$$$
1GJC_130_B_251
     RDKit          3D

 25 28  0  0  0  0  0  0  0  0999 V2000
    8.7610    1.3670   24.6990 C   0  0  0  0  0  0  0  0  0  0  0  0
    9.5260    1.2400   23.5100 C   0  0  0  0  0  0  0  0  0  0  0  0
   10.1020    2.3400   22.8490 C   0  0  0  0  0  0  0  0  0  0  0  0
    9.8850    3.5570   23.4180 C   0  0  0  0  0  0  0  0  0  0  0  0
    9.1700    3.7280   24.5370 C   0  0  0  0  0  0  0  0  0  0  0  0
    8.5860    2.6760   25.2210 C   0  0  0  0  0  0  0  0  0  0  0  0
    8.2110    0.2360   25.3310 C   0  0  0  0  0  0  0  0  0  0  0  0
    7.7860    0.3080   26.5690 N   0  0  0  0  0  0  0  0  0  0  0  0
    8.1250   -0.8970   24.6800 N   0  0  0  0  0  0  0  0  0  0  0  0
   10.2680    4.7330   23.0440 N   0  0  0  0  0  0  0  0  0  0  0  0
    9.0780    5.0000   24.9000 N   0  0  0  0  0  0  0  0  0  0  0  0
    9.7860    5.5600   23.9200 C   0  0  0  0  0  0  0  0  0  0  0  0
   10.0470    6.9550   23.8570 C   0  0  0  0  0  0  0  0  0  0  0  0
    9.7040    7.8070   24.9150 C   0  0  0  0  0  0  0  0  0  0  0  0
    9.9550    9.1710   24.8730 C   0  0  0  0  0  0  0  0  0  0  0  0
   10.5550    9.7220   23.7660 C   0  0  0  0  0  0  0  0  0  0  0  0
   10.9270    8.9440   22.6670 C   0  0  0  0  0  0  0  0  0  0  0  0
   10.6660    7.5610   22.7300 C   0  0  0  0  0  0  0  0  0  0  0  0
   11.0360    6.7970   21.6420 O   0  0  0  0  0  0  0  0  0  0  0  0
   11.5400    9.5710   21.5850 C   0  0  0  0  0  0  0  0  0  0  0  0
   12.7980    9.1700   21.1430 C   0  0  0  0  0  0  0  0  0  0  0  0
   13.4460    9.8080   20.0970 C   0  0  0  0  0  0  0  0  0  0  0  0
   12.8360   10.8760   19.4600 C   0  0  0  0  0  0  0  0  0  0  0  0
   11.5800   11.2970   19.8720 C   0  0  0  0  0  0  0  0  0  0  0  0
   10.9360   10.6510   20.9230 C   0  0  0  0  0  0  0  0  0  0  0  0
  2  1  2  0
  6  1  1  0
  7  1  1  0
  3  2  1  0
  4  3  2  0
  5  4  1  0
 10  4  1  0
  6  5  2  0
 11  5  1  0
  8  7  1  0
  9  7  2  0
 12 10  1  0
 12 11  2  0
 13 12  1  0
 14 13  2  0
 18 13  1  0
 15 14  1  0
 16 15  2  0
 17 16  1  0
 18 17  2  0
 20 17  1  0
 19 18  1  0
 21 20  2  0
 25 20  1  0
 22 21  1  0
 23 22  2  0
 24 23  1  0
 25 24  2  0
A    1
C1
A    2
C2
A    3
C3
A    4
C4
A    5
C5
A    6
C6
A    7
C7
A    8
N1
A    9
N2
A   10
N3
A   11
N4
A   12
C8
A   13
C1'
A   14
C2'
A   15
C3'
A   16
C4'
A   17
C5'
A   18
C6'
A   19
O6'
A   20
C1B
A   21
C2B
A   22
C3B
A   23
C4B
A   24
C5B
A   25
C6B
M  END
>  <Id>  (38) 
1GJC_130_B_251

>  <ChainId>  (38) 
B

>  <AsymId>  (38) 
E

>  <SeqNum>  (38) 
251

>  <Name>  (38) 
2-(2-HYDROXY-BIPHENYL)-1H-BENZOIMIDAZOLE-5-CARBOXAMIDINE

>  <SystematicName>  (38) 
2-(2-hydroxy-3-phenyl-phenyl)-1H-benzimidazole-5-carboximidamide

>  <Synonyms>  (38) 


>  <Type>  (38) 
NON-POLYMER

>  <Formula>  (38) 
C20 H16 N4 O

>  <ObservedFormula>  (38) 
C20 N4 O

>  <MolecularWeight>  (38) 
328.367

>  <ModifiedDate>  (38) 
2011-06-04

>  <Parent>  (38) 


>  <OneLetterCode>  (38) 


>  <SubcomponentList>  (38) 


>  <AmbiguousFlag>  (38) 
N

>  <InsertionCode>  (38) 


>  <InstanceId>  (38) 
1GJC_130_B_251

>  <ChemCompId>  (38) 
130

>  <PdbId>  (38) 
1GJC

>  <ResidueNumber>  (38) 
251

>  <InChI>  (38) 
InChI=1S/C20H16N4O/c21-19(22)13-9-10-16-17(11-13)24-20(23-16)15-8-4-7-14(18(15)25)12-5-2-1-3-6-12/h1-11,25H,(H3,21,22)(H,23,24)

>  <InChIKey>  (38) 
LMGQGPVCSYOMNS-UHFFFAOYSA-N

>  <SMILES>  (38) 
[H]/N=C(\c1ccc2c(c1)nc([nH]2)c3cccc(c3O)c4ccccc4)/N

>  <MissingHeavyAtoms>  (38) 
0

>  <Model>  (38) 
1

>  <AltIds>  (38) 


>  <pKI>  (38) 
6.4

>  <ChemblID>  (38) 
CHEMBL327715

>  <standardized_canonical_smiles>  (38) 
N=C(N)c1ccc2nc(-c3cccc(-c4ccccc4)c3O)[nH]c2c1

$$$$
1GJB_130_B_251
     RDKit          3D

 25 28  0  0  0  0  0  0  0  0999 V2000
    8.5770    1.4330   24.7450 C   0  0  0  0  0  0  0  0  0  0  0  0
    9.3890    1.2760   23.5690 C   0  0  0  0  0  0  0  0  0  0  0  0
    9.9820    2.3660   22.9110 C   0  0  0  0  0  0  0  0  0  0  0  0
    9.7350    3.5850   23.4590 C   0  0  0  0  0  0  0  0  0  0  0  0
    8.9740    3.7750   24.5540 C   0  0  0  0  0  0  0  0  0  0  0  0
    8.3750    2.7410   25.2340 C   0  0  0  0  0  0  0  0  0  0  0  0
    8.0160    0.3180   25.3880 C   0  0  0  0  0  0  0  0  0  0  0  0
    7.6460    0.3810   26.6530 N   0  0  0  0  0  0  0  0  0  0  0  0
    7.8750   -0.7900   24.7110 N   0  0  0  0  0  0  0  0  0  0  0  0
   10.1270    4.7610   23.0840 N   0  0  0  0  0  0  0  0  0  0  0  0
    8.8650    5.0490   24.9010 N   0  0  0  0  0  0  0  0  0  0  0  0
    9.6080    5.5890   23.9410 C   0  0  0  0  0  0  0  0  0  0  0  0
    9.8450    6.9610   23.8680 C   0  0  0  0  0  0  0  0  0  0  0  0
    9.4350    7.8020   24.9020 C   0  0  0  0  0  0  0  0  0  0  0  0
    9.6540    9.1710   24.8690 C   0  0  0  0  0  0  0  0  0  0  0  0
   10.2920    9.7260   23.7760 C   0  0  0  0  0  0  0  0  0  0  0  0
   10.7260    8.9440   22.7130 C   0  0  0  0  0  0  0  0  0  0  0  0
   10.4980    7.5650   22.7660 C   0  0  0  0  0  0  0  0  0  0  0  0
   10.9450    6.8030   21.7010 O   0  0  0  0  0  0  0  0  0  0  0  0
   11.3660    9.5550   21.6460 C   0  0  0  0  0  0  0  0  0  0  0  0
   12.5390    9.0410   21.0810 C   0  0  0  0  0  0  0  0  0  0  0  0
   13.1740    9.6850   20.0270 C   0  0  0  0  0  0  0  0  0  0  0  0
   12.6500   10.8610   19.5070 C   0  0  0  0  0  0  0  0  0  0  0  0
   11.4860   11.3860   20.0500 C   0  0  0  0  0  0  0  0  0  0  0  0
   10.8590   10.7380   21.1040 C   0  0  0  0  0  0  0  0  0  0  0  0
  2  1  2  0
  6  1  1  0
  7  1  1  0
  3  2  1  0
  4  3  2  0
  5  4  1  0
 10  4  1  0
  6  5  2  0
 11  5  1  0
  8  7  1  0
  9  7  2  0
 12 10  1  0
 12 11  2  0
 13 12  1  0
 14 13  2  0
 18 13  1  0
 15 14  1  0
 16 15  2  0
 17 16  1  0
 18 17  2  0
 20 17  1  0
 19 18  1  0
 21 20  2  0
 25 20  1  0
 22 21  1  0
 23 22  2  0
 24 23  1  0
 25 24  2  0
A    1
C1
A    2
C2
A    3
C3
A    4
C4
A    5
C5
A    6
C6
A    7
C7
A    8
N1
A    9
N2
A   10
N3
A   11
N4
A   12
C8
A   13
C1'
A   14
C2'
A   15
C3'
A   16
C4'
A   17
C5'
A   18
C6'
A   19
O6'
A   20
C1B
A   21
C2B
A   22
C3B
A   23
C4B
A   24
C5B
A   25
C6B
M  END
>  <Id>  (39) 
1GJB_130_B_251

>  <ChainId>  (39) 
B

>  <AsymId>  (39) 
E

>  <SeqNum>  (39) 
251

>  <Name>  (39) 
2-(2-HYDROXY-BIPHENYL)-1H-BENZOIMIDAZOLE-5-CARBOXAMIDINE

>  <SystematicName>  (39) 
2-(2-hydroxy-3-phenyl-phenyl)-1H-benzimidazole-5-carboximidamide

>  <Synonyms>  (39) 


>  <Type>  (39) 
NON-POLYMER

>  <Formula>  (39) 
C20 H16 N4 O

>  <ObservedFormula>  (39) 
C20 N4 O

>  <MolecularWeight>  (39) 
328.367

>  <ModifiedDate>  (39) 
2011-06-04

>  <Parent>  (39) 


>  <OneLetterCode>  (39) 


>  <SubcomponentList>  (39) 


>  <AmbiguousFlag>  (39) 
N

>  <InsertionCode>  (39) 


>  <InstanceId>  (39) 
1GJB_130_B_251

>  <ChemCompId>  (39) 
130

>  <PdbId>  (39) 
1GJB

>  <ResidueNumber>  (39) 
251

>  <InChI>  (39) 
InChI=1S/C20H16N4O/c21-19(22)13-9-10-16-17(11-13)24-20(23-16)15-8-4-7-14(18(15)25)12-5-2-1-3-6-12/h1-11,25H,(H3,21,22)(H,23,24)

>  <InChIKey>  (39) 
LMGQGPVCSYOMNS-UHFFFAOYSA-N

>  <SMILES>  (39) 
[H]/N=C(\c1ccc2c(c1)nc([nH]2)c3cccc(c3O)c4ccccc4)/N

>  <MissingHeavyAtoms>  (39) 
0

>  <Model>  (39) 
1

>  <AltIds>  (39) 


>  <pKI>  (39) 
6.4

>  <ChemblID>  (39) 
CHEMBL327715

>  <standardized_canonical_smiles>  (39) 
N=C(N)c1ccc2nc(-c3cccc(-c4ccccc4)c3O)[nH]c2c1

$$$$
1W14_SH1_U_1300
     RDKit          3D

 33 33  0  0  0  0  0  0  0  0999 V2000
   32.7040   12.0000   27.3830 C   0  0  0  0  0  0  0  0  0  0  0  0
   32.7350   12.9370   26.1960 C   0  0  0  0  0  0  0  0  0  0  0  0
   33.6190   12.4380   25.0570 C   0  0  0  0  0  0  0  0  0  0  0  0
   33.2190   11.3510   24.2740 C   0  0  0  0  0  0  0  0  0  0  0  0
   34.8320   13.0800   24.7990 C   0  0  0  0  0  0  0  0  0  0  0  0
   33.9910   10.9560   23.1850 C   0  0  0  0  0  0  0  0  0  0  0  0
   35.5850   12.6790   23.7080 C   0  0  0  0  0  0  0  0  0  0  0  0
   35.1660   11.6370   22.8950 C   0  0  0  0  0  0  0  0  0  0  0  0
   33.9890   12.3310   28.5990 S   0  0  0  0  0  0  0  0  0  0  0  0
   35.6470   11.8470   28.2450 O   0  0  0  0  0  0  0  0  0  0  0  0
   34.0560   14.0560   28.9730 O   0  0  0  0  0  0  0  0  0  0  0  0
   33.5470   11.4050   30.0130 N   0  0  0  0  0  0  0  0  0  0  0  0
   32.4610   11.9220   30.7860 C   0  0  0  0  0  0  0  0  0  0  0  0
   33.1480   12.2830   32.0940 C   0  0  0  0  0  0  0  0  0  0  0  0
   33.8480   11.1250   32.5350 O   0  0  0  0  0  0  0  0  0  0  0  0
   31.4270   10.8060   30.8860 C   0  0  0  0  0  0  0  0  0  0  0  0
   31.7310    9.6360   30.5900 O   0  0  0  0  0  0  0  0  0  0  0  0
   30.2100   11.1610   31.3020 N   0  0  0  0  0  0  0  0  0  0  0  0
   29.1480   10.2120   31.4990 C   0  0  0  0  0  0  0  0  0  0  0  0
   27.9950   10.9430   32.1380 C   0  0  0  0  0  0  0  0  0  0  0  0
   28.7610    9.5930   30.1500 C   0  0  0  0  0  0  0  0  0  0  0  0
   28.7030   10.2590   29.0860 O   0  0  0  0  0  0  0  0  0  0  0  0
   28.5020    8.2860   30.2400 N   0  0  0  0  0  0  0  0  0  0  0  0
   28.0250    7.5620   29.0730 C   0  0  0  0  0  0  0  0  0  0  0  0
   28.7440    6.2450   28.8480 C   0  0  0  0  0  0  0  0  0  0  0  0
   30.2290    6.4680   28.6670 C   0  0  0  0  0  0  0  0  0  0  0  0
   30.8540    5.1510   28.3070 C   0  0  0  0  0  0  0  0  0  0  0  0
   32.2470    5.4100   28.0420 N   0  0  0  0  0  0  0  0  0  0  0  0
   33.1520    4.4440   27.8860 C   0  0  0  0  0  0  0  0  0  0  0  0
   32.8260    3.1440   27.9710 N   0  0  0  0  0  0  0  0  0  0  0  0
   34.4110    4.8090   27.6420 N   0  0  0  0  0  0  0  0  0  0  0  0
   26.5090    7.3490   29.1840 C   0  0  0  0  0  0  0  0  0  0  0  0
   25.8170    8.5400   29.5650 O   0  0  0  0  0  0  0  0  0  0  0  0
  2  1  1  0
  9  1  1  0
  3  2  1  0
  4  3  2  0
  5  3  1  0
  6  4  1  0
  7  5  2  0
  8  6  2  0
  8  7  1  0
 10  9  2  0
 11  9  2  0
 12  9  1  0
 13 12  1  0
 14 13  1  0
 16 13  1  0
 15 14  1  0
 17 16  2  0
 18 16  1  0
 19 18  1  0
 20 19  1  0
 21 19  1  0
 22 21  2  0
 23 21  1  0
 24 23  1  0
 25 24  1  0
 32 24  1  0
 26 25  1  0
 27 26  1  0
 28 27  1  0
 29 28  2  3
 30 29  1  0
 31 29  1  0
 33 32  1  0
A    1
C1
A    2
C2
A    3
C3
A    4
C4
A    5
C5
A    6
C6
A    7
C7
A    8
C8
A    9
S1
A   10
O1
A   11
O2
A   12
N1
A   13
C9
A   14
C10
A   15
O3
A   16
C11
A   17
O4
A   18
N2
A   19
C12
A   20
C13
A   21
C14
A   22
O5
A   23
N3
A   24
C15
A   25
C16
A   26
C17
A   27
C18
A   28
N4
A   29
C19
A   30
N5
A   31
N6
A   32
C20
A   33
O6
M  END
>  <Id>  (40) 
1W14_SH1_U_1300

>  <ChainId>  (40) 
U

>  <AsymId>  (40) 
D

>  <SeqNum>  (40) 
1300

>  <Name>  (40) 
N-[(2-PHENYLETHYL)SULFONYL]-D-SERYL-N-[(1S)-4-[(DIAMINOMETHYLENE)AMINO]-1-(HYDROXYMETHYL)BUTYL]-L-ALANINAMIDE

>  <SystematicName>  (40) 
(2R)-N-[(2S)-1-[[(2S)-5-(diaminomethylideneamino)-1-hydroxy-pentan-2-yl]amino]-1-oxo-propan-2-yl]-3-hydroxy-2-(phenethylsulfonylamino)propanamide

>  <Synonyms>  (40) 


>  <Type>  (40) 
NON-POLYMER

>  <Formula>  (40) 
C20 H34 N6 O6 S

>  <ObservedFormula>  (40) 
C20 S N6 O6

>  <MolecularWeight>  (40) 
486.586

>  <ModifiedDate>  (40) 
2011-06-04

>  <Parent>  (40) 


>  <OneLetterCode>  (40) 


>  <SubcomponentList>  (40) 


>  <AmbiguousFlag>  (40) 
N

>  <InsertionCode>  (40) 


>  <InstanceId>  (40) 
1W14_SH1_U_1300

>  <ChemCompId>  (40) 
SH1

>  <PdbId>  (40) 
1W14

>  <ResidueNumber>  (40) 
1300

>  <InChI>  (40) 
InChI=1S/C20H34N6O6S/c1-14(18(29)25-16(12-27)8-5-10-23-20(21)22)24-19(30)17(13-28)26-33(31,32)11-9-15-6-3-2-4-7-15/h2-4,6-7,14,16-17,26-28H,5,8-13H2,1H3,(H,24,30)(H,25,29)(H4,21,22,23)/t14-,16-,17+/m0/s1

>  <InChIKey>  (40) 
RWZMJXITHWDHNE-BHYGNILZSA-N

>  <SMILES>  (40) 
C[C@@H](C(=O)N[C@@H](CCCN=C(N)N)CO)NC(=O)[C@@H](CO)NS(=O)(=O)CCc1ccccc1

>  <MissingHeavyAtoms>  (40) 
0

>  <Model>  (40) 
1

>  <AltIds>  (40) 


>  <pKI>  (40) 
6.4

>  <ChemblID>  (40) 
CHEMBL327715

>  <standardized_canonical_smiles>  (40) 
N=C(N)c1ccc2nc(-c3cccc(-c4ccccc4)c3O)[nH]c2c1

$$$$
1W11_SK1_U_1247
     RDKit          3D

 32 33  0  0  0  0  0  0  0  0999 V2000
   28.4620    8.1490   29.6750 N   0  0  0  0  0  0  0  0  0  0  0  0
   34.2760    4.7210   26.7910 N   0  0  0  0  0  0  0  0  0  0  0  0
   33.1130    4.2970   27.3250 C   0  0  0  0  0  0  0  0  0  0  0  0
   33.0430    2.9720   27.5180 N   0  0  0  0  0  0  0  0  0  0  0  0
   32.0250    5.1160   27.6680 C   0  0  0  0  0  0  0  0  0  0  0  0
   31.9470    6.4710   27.3000 C   0  0  0  0  0  0  0  0  0  0  0  0
   30.7480    7.1680   27.5350 C   0  0  0  0  0  0  0  0  0  0  0  0
   29.6660    6.5930   28.2340 C   0  0  0  0  0  0  0  0  0  0  0  0
   29.8080    5.2800   28.6940 C   0  0  0  0  0  0  0  0  0  0  0  0
   30.9620    4.5500   28.4020 C   0  0  0  0  0  0  0  0  0  0  0  0
   28.3800    7.3430   28.4950 C   0  0  0  0  0  0  0  0  0  0  0  0
   28.8020    9.4820   29.6000 C   0  0  0  0  0  0  0  0  0  0  0  0
   29.0000   10.0970   28.5810 O   0  0  0  0  0  0  0  0  0  0  0  0
   28.9360   10.1550   30.9410 C   0  0  0  0  0  0  0  0  0  0  0  0
   29.9270   11.1780   30.9750 N   0  0  0  0  0  0  0  0  0  0  0  0
   31.2390   10.8040   30.7810 C   0  0  0  0  0  0  0  0  0  0  0  0
   31.5510    9.6390   30.6300 O   0  0  0  0  0  0  0  0  0  0  0  0
   32.2790   11.9060   30.7370 C   0  0  0  0  0  0  0  0  0  0  0  0
   33.0280   12.0850   32.0660 C   0  0  0  0  0  0  0  0  0  0  0  0
   32.0730   12.0210   33.0980 O   0  0  0  0  0  0  0  0  0  0  0  0
   33.3060   11.6510   29.7850 N   0  0  0  0  0  0  0  0  0  0  0  0
   33.2070   11.7830   28.1520 S   0  0  0  0  0  0  0  0  0  0  0  0
   34.5830   11.5010   27.7120 O   0  0  0  0  0  0  0  0  0  0  0  0
   32.7600   13.1350   27.9210 O   0  0  0  0  0  0  0  0  0  0  0  0
   31.9210   10.6550   27.5940 C   0  0  0  0  0  0  0  0  0  0  0  0
   31.8740   10.9070   26.1030 C   0  0  0  0  0  0  0  0  0  0  0  0
   32.5730   10.0880   25.2100 C   0  0  0  0  0  0  0  0  0  0  0  0
   32.6790   10.5110   23.8830 C   0  0  0  0  0  0  0  0  0  0  0  0
   32.1010   11.7150   23.4590 C   0  0  0  0  0  0  0  0  0  0  0  0
   31.3260   12.4830   24.3410 C   0  0  0  0  0  0  0  0  0  0  0  0
   31.1300   12.0100   25.6470 C   0  0  0  0  0  0  0  0  0  0  0  0
   27.6060   10.7720   31.3850 C   0  0  0  0  0  0  0  0  0  0  0  0
 11  1  1  0
 12  1  1  0
  3  2  1  0
  4  3  2  0
  5  3  1  0
  6  5  2  0
 10  5  1  0
  7  6  1  0
  8  7  2  0
  9  8  1  0
 11  8  1  0
 10  9  2  0
 13 12  2  0
 14 12  1  0
 15 14  1  0
 32 14  1  0
 16 15  1  0
 17 16  2  0
 18 16  1  0
 19 18  1  0
 21 18  1  0
 20 19  1  0
 22 21  1  0
 23 22  2  0
 24 22  2  0
 25 22  1  0
 26 25  1  0
 27 26  2  0
 31 26  1  0
 28 27  1  0
 29 28  2  0
 30 29  1  0
 31 30  2  0
A    1
N3
A    2
N5
A    3
C18
A    4
N4
A    5
C14
A    6
C13
A    7
C12
A    8
C17
A    9
C16
A   10
C15
A   11
C11
A   12
C10
A   13
O5
A   14
C8
A   15
N2
A   16
C7
A   17
O4
A   18
C5
A   19
C6
A   20
O3
A   21
N1
A   22
S1
A   23
O1
A   24
O2
A   25
C1
A   26
C4
A   27
C19
A   28
C20
A   29
C21
A   30
C2
A   31
C3
A   32
C22
M  END
>  <Id>  (41) 
1W11_SK1_U_1247

>  <ChainId>  (41) 
U

>  <AsymId>  (41) 
D

>  <SeqNum>  (41) 
1247

>  <Name>  (41) 
N-(BENZYLSULFONYL)-D-SERYL-N-{4-[AMINO(IMINO)METHYL]BENZYL}-L-ALANINAMIDE

>  <SystematicName>  (41) 
(2S)-N-[(4-carbamimidoylphenyl)methyl]-2-[[(2R)-3-hydroxy-2-(phenylmethylsulfonylamino)propanoyl]amino]propanamide

>  <Synonyms>  (41) 


>  <Type>  (41) 
NON-POLYMER

>  <Formula>  (41) 
C21 H27 N5 O5 S

>  <ObservedFormula>  (41) 
C21 S N5 O5

>  <MolecularWeight>  (41) 
461.535

>  <ModifiedDate>  (41) 
2011-06-04

>  <Parent>  (41) 


>  <OneLetterCode>  (41) 


>  <SubcomponentList>  (41) 


>  <AmbiguousFlag>  (41) 
N

>  <InsertionCode>  (41) 


>  <InstanceId>  (41) 
1W11_SK1_U_1247

>  <ChemCompId>  (41) 
SK1

>  <PdbId>  (41) 
1W11

>  <ResidueNumber>  (41) 
1247

>  <InChI>  (41) 
InChI=1S/C21H27N5O5S/c1-14(20(28)24-11-15-7-9-17(10-8-15)19(22)23)25-21(29)18(12-27)26-32(30,31)13-16-5-3-2-4-6-16/h2-10,14,18,26-27H,11-13H2,1H3,(H3,22,23)(H,24,28)(H,25,29)/t14-,18+/m0/s1

>  <InChIKey>  (41) 
QJNHUFOFEMCMGR-KBXCAEBGSA-N

>  <SMILES>  (41) 
[H]/N=C(\c1ccc(cc1)CNC(=O)[C@H](C)NC(=O)[C@@H](CO)NS(=O)(=O)Cc2ccccc2)/N

>  <MissingHeavyAtoms>  (41) 
0

>  <Model>  (41) 
1

>  <AltIds>  (41) 


>  <pKI>  (41) 
8.11

>  <ChemblID>  (41) 
CHEMBL158405

>  <standardized_canonical_smiles>  (41) 
C[C@H](NC(=O)[C@@H](CO)NS(=O)(=O)Cc1ccccc1)C(=O)NCc1ccc(C(=N)N)cc1

$$$$
1SC8_2IN_U_300
     RDKit          3D

 31 32  0  0  0  0  0  0  0  0999 V2000
   33.2550    2.9670   27.9080 N   0  0  0  0  0  0  0  0  0  0  0  0
   34.3090    4.7250   27.0940 N   0  0  0  0  0  0  0  0  0  0  0  0
   33.1790    4.2800   27.6500 C   0  0  0  0  0  0  0  0  0  0  0  0
   32.0720    5.1030   27.9120 C   0  0  0  0  0  0  0  0  0  0  0  0
   31.9610    6.4910   27.4340 C   0  0  0  0  0  0  0  0  0  0  0  0
   30.7700    7.2710   27.6590 C   0  0  0  0  0  0  0  0  0  0  0  0
   29.6970    6.6860   28.4560 C   0  0  0  0  0  0  0  0  0  0  0  0
   29.7750    5.3320   28.9560 C   0  0  0  0  0  0  0  0  0  0  0  0
   30.9500    4.5650   28.6920 C   0  0  0  0  0  0  0  0  0  0  0  0
   28.4260    7.3650   28.8680 C   0  0  0  0  0  0  0  0  0  0  0  0
   28.4480    8.2740   29.9300 N   0  0  0  0  0  0  0  0  0  0  0  0
   28.7680    9.6030   29.7830 C   0  0  0  0  0  0  0  0  0  0  0  0
   29.0050   10.2130   28.7450 O   0  0  0  0  0  0  0  0  0  0  0  0
   28.8340   10.3830   31.0940 C   0  0  0  0  0  0  0  0  0  0  0  0
   30.0400   11.1740   31.0280 N   0  0  0  0  0  0  0  0  0  0  0  0
   31.3660   10.8020   31.0110 C   0  0  0  0  0  0  0  0  0  0  0  0
   31.7890    9.6780   31.1160 O   0  0  0  0  0  0  0  0  0  0  0  0
   32.3620   11.9350   30.8300 C   0  0  0  0  0  0  0  0  0  0  0  0
   33.1230   12.3240   32.1200 C   0  0  0  0  0  0  0  0  0  0  0  0
   32.4870   12.3930   33.3690 O   0  0  0  0  0  0  0  0  0  0  0  0
   33.5000   11.6710   29.9870 N   0  0  0  0  0  0  0  0  0  0  0  0
   33.3130   12.0270   28.4080 S   0  0  0  0  0  0  0  0  0  0  0  0
   32.9000   13.3830   28.2150 O   0  0  0  0  0  0  0  0  0  0  0  0
   34.6390   11.6510   27.9190 O   0  0  0  0  0  0  0  0  0  0  0  0
   32.1970   10.9650   27.4930 C   0  0  0  0  0  0  0  0  0  0  0  0
   31.8210   11.1810   26.0660 C   0  0  0  0  0  0  0  0  0  0  0  0
   30.8310   12.2150   25.7540 C   0  0  0  0  0  0  0  0  0  0  0  0
   30.4570   12.4660   24.3570 C   0  0  0  0  0  0  0  0  0  0  0  0
   31.0400   11.6620   23.2750 C   0  0  0  0  0  0  0  0  0  0  0  0
   32.0480   10.6280   23.5870 C   0  0  0  0  0  0  0  0  0  0  0  0
   32.4160   10.3850   24.9880 C   0  0  0  0  0  0  0  0  0  0  0  0
  3  1  1  0
  3  2  2  0
  4  3  1  0
  5  4  2  0
  9  4  1  0
  6  5  1  0
  7  6  2  0
  8  7  1  0
 10  7  1  0
  9  8  2  0
 11 10  1  0
 12 11  1  0
 13 12  2  0
 14 12  1  0
 15 14  1  0
 16 15  1  0
 17 16  2  0
 18 16  1  0
 19 18  1  0
 21 18  1  0
 20 19  1  0
 22 21  1  0
 23 22  2  0
 24 22  2  0
 25 22  1  0
 26 25  1  0
 27 26  2  0
 31 26  1  0
 28 27  1  0
 29 28  2  0
 30 29  1  0
 31 30  2  0
A    1
N4
A    2
N5
A    3
C18
A    4
C14
A    5
C13
A    6
C12
A    7
C17
A    8
C16
A    9
C15
A   10
C11
A   11
N3
A   12
C10
A   13
O5
A   14
C8
A   15
N2
A   16
C7
A   17
O4
A   18
C5
A   19
C6
A   20
O3
A   21
N1
A   22
S1
A   23
O2
A   24
O1
A   25
C1
A   26
C4
A   27
C3
A   28
C2
A   29
C21
A   30
C20
A   31
C19
M  END
>  <Id>  (42) 
1SC8_2IN_U_300

>  <ChainId>  (42) 
U

>  <AsymId>  (42) 
D

>  <SeqNum>  (42) 
300

>  <Name>  (42) 
N-(BENZYLSULFONYL)SERYL-N~1~-{4-[AMINO(IMINO)METHYL]BENZYL}GLYCINAMIDE

>  <SystematicName>  (42) 
(2R)-N-[2-[(4-carbamimidoylphenyl)methylamino]-2-oxo-ethyl]-3-hydroxy-2-(phenylmethylsulfonylamino)propanamide

>  <Synonyms>  (42) 


>  <Type>  (42) 
NON-POLYMER

>  <Formula>  (42) 
C20 H25 N5 O5 S

>  <ObservedFormula>  (42) 
C20 S N5 O5

>  <MolecularWeight>  (42) 
447.508

>  <ModifiedDate>  (42) 
2011-06-04

>  <Parent>  (42) 


>  <OneLetterCode>  (42) 


>  <SubcomponentList>  (42) 


>  <AmbiguousFlag>  (42) 
N

>  <InsertionCode>  (42) 


>  <InstanceId>  (42) 
1SC8_2IN_U_300

>  <ChemCompId>  (42) 
2IN

>  <PdbId>  (42) 
1SC8

>  <ResidueNumber>  (42) 
300

>  <InChI>  (42) 
InChI=1S/C20H25N5O5S/c21-19(22)16-8-6-14(7-9-16)10-23-18(27)11-24-20(28)17(12-26)25-31(29,30)13-15-4-2-1-3-5-15/h1-9,17,25-26H,10-13H2,(H3,21,22)(H,23,27)(H,24,28)/t17-/m1/s1

>  <InChIKey>  (42) 
MIDRZAUOYQDRRT-QGZVFWFLSA-N

>  <SMILES>  (42) 
c1ccc(cc1)CS(=O)(=O)N[C@H](CO)C(=O)NCC(=O)NCc2ccc(cc2)C(=N)N

>  <MissingHeavyAtoms>  (42) 
0

>  <Model>  (42) 
1

>  <AltIds>  (42) 


>  <pKI>  (42) 
7.44

>  <ChemblID>  (42) 
CHEMBL158936

>  <standardized_canonical_smiles>  (42) 
N=C(N)c1ccc(CNC(=O)CNC(=O)[C@@H](CO)NS(=O)(=O)Cc2ccccc2)cc1

$$$$
1U6Q_745_A_245
     RDKit          3D

 22 25  0  0  0  0  0  0  0  0999 V2000
   23.0250   15.7430   33.2780 C   0  0  0  0  0  0  0  0  0  0  0  0
   21.7010   15.7210   32.7100 C   0  0  0  0  0  0  0  0  0  0  0  0
   20.7990   16.7990   32.9850 C   0  0  0  0  0  0  0  0  0  0  0  0
   21.2670   17.9470   33.7650 C   0  0  0  0  0  0  0  0  0  0  0  0
   22.6430   17.9910   34.2100 C   0  0  0  0  0  0  0  0  0  0  0  0
   23.5350   16.9180   33.9280 C   0  0  0  0  0  0  0  0  0  0  0  0
   19.4440   16.7860   32.5130 C   0  0  0  0  0  0  0  0  0  0  0  0
   18.5540   17.8310   32.8520 C   0  0  0  0  0  0  0  0  0  0  0  0
   18.9810   18.9290   33.6570 C   0  0  0  0  0  0  0  0  0  0  0  0
   20.3580   18.9930   34.0530 C   0  0  0  0  0  0  0  0  0  0  0  0
   18.0710   20.0100   34.0050 C   0  0  0  0  0  0  0  0  0  0  0  0
   16.7930   19.7920   33.9730 N   0  0  0  0  0  0  0  0  0  0  0  0
   18.4780   21.2580   34.2300 N   0  0  0  0  0  0  0  0  0  0  0  0
   23.9560   14.6350   33.4210 C   0  0  0  0  0  0  0  0  0  0  0  0
   24.8640   14.8000   32.0590 C   0  0  0  0  0  0  0  0  0  0  0  0
   25.9450   14.1780   31.1900 C   0  0  0  0  0  0  0  0  0  0  0  0
   26.7970   14.7920   30.2100 C   0  0  0  0  0  0  0  0  0  0  0  0
   27.5160   13.9460   29.3030 C   0  0  0  0  0  0  0  0  0  0  0  0
   27.4080   12.5500   29.4060 C   0  0  0  0  0  0  0  0  0  0  0  0
   26.8100   11.9720   30.5180 C   0  0  0  0  0  0  0  0  0  0  0  0
   26.0970   12.7820   31.3880 C   0  0  0  0  0  0  0  0  0  0  0  0
   25.4190   14.3480   33.3900 C   0  0  0  0  0  0  0  0  0  0  0  0
  2  1  2  0
  6  1  1  0
 14  1  1  0
  3  2  1  0
  4  3  2  0
  7  3  1  0
  5  4  1  0
 10  4  1  0
  6  5  2  0
  8  7  2  0
  9  8  1  0
 10  9  2  0
 11  9  1  0
 12 11  2  0
 13 11  1  0
 15 14  1  0
 22 14  1  0
 16 15  1  0
 22 15  1  0
 17 16  2  0
 21 16  1  0
 18 17  1  0
 19 18  2  0
 20 19  1  0
 21 20  2  0
A    1
C1
A    2
C2
A    3
C3
A    4
C4
A    5
C5
A    6
C6
A    7
C10
A    8
C11
A    9
C12
A   10
C13
A   11
C17
A   12
N18
A   13
N19
A   14
C23
A   15
C24
A   16
C25
A   17
C26
A   18
C27
A   19
C28
A   20
C29
A   21
C30
A   22
C7
M  END
>  <Id>  (43) 
1U6Q_745_A_245

>  <ChainId>  (43) 
A

>  <AsymId>  (43) 
B

>  <SeqNum>  (43) 
245

>  <Name>  (43) 
TRANS-6-(2-PHENYLCYCLOPROPYL)-NAPHTHALENE-2-CARBOXAMIDINE

>  <SystematicName>  (43) 
6-[(1R,2R)-2-phenylcyclopropyl]naphthalene-2-carboximidamide

>  <Synonyms>  (43) 


>  <Type>  (43) 
NON-POLYMER

>  <Formula>  (43) 
C20 H18 N2

>  <ObservedFormula>  (43) 
C20 N2

>  <MolecularWeight>  (43) 
286.37

>  <ModifiedDate>  (43) 
2011-06-04

>  <Parent>  (43) 


>  <OneLetterCode>  (43) 


>  <SubcomponentList>  (43) 


>  <AmbiguousFlag>  (43) 
N

>  <InsertionCode>  (43) 


>  <InstanceId>  (43) 
1U6Q_745_A_245

>  <ChemCompId>  (43) 
745

>  <PdbId>  (43) 
1U6Q

>  <ResidueNumber>  (43) 
245

>  <InChI>  (43) 
InChI=1S/C20H18N2/c21-20(22)17-9-7-14-10-16(8-6-15(14)11-17)19-12-18(19)13-4-2-1-3-5-13/h1-11,18-19H,12H2,(H3,21,22)/t18-,19-/m0/s1

>  <InChIKey>  (43) 
NQRIWXVAIWPBEM-OALUTQOASA-N

>  <SMILES>  (43) 
[H]/N=C(/c1ccc2cc(ccc2c1)[C@@H]3C[C@H]3c4ccccc4)\N

>  <MissingHeavyAtoms>  (43) 
0

>  <Model>  (43) 
1

>  <AltIds>  (43) 


>  <pKI>  (43) 
5.89

>  <ChemblID>  (43) 
CHEMBL426433

>  <standardized_canonical_smiles>  (43) 
N=C(N)c1ccc2cc(C3CC3c3ccccc3)ccc2c1

$$$$
1F92_UKP_A_300
     RDKit          3D

 43 45  0  0  0  0  0  0  0  0999 V2000
   31.6590    9.9960   27.9900 N   0  0  0  0  0  0  0  0  0  0  0  0
   30.2070    9.9320   28.0070 C   0  0  0  0  0  0  0  0  0  0  0  0
   32.6280    4.2320   27.7640 C   0  0  0  0  0  0  0  0  0  0  0  0
   30.3990    9.0980   30.1770 O   0  0  0  0  0  0  0  0  0  0  0  0
   29.7540    8.7560   27.1090 C   0  0  0  0  0  0  0  0  0  0  0  0
   30.1480    7.0900   27.7780 C   0  0  0  0  0  0  0  0  0  0  0  0
   31.2820    6.3160   27.4730 C   0  0  0  0  0  0  0  0  0  0  0  0
   31.4950    5.0290   28.0620 C   0  0  0  0  0  0  0  0  0  0  0  0
   30.4890    4.5810   28.9770 C   0  0  0  0  0  0  0  0  0  0  0  0
   29.3580    5.3590   29.2780 C   0  0  0  0  0  0  0  0  0  0  0  0
   29.1970    6.5990   28.6780 C   0  0  0  0  0  0  0  0  0  0  0  0
   32.5900    2.9900   27.7940 N   0  0  0  0  0  0  0  0  0  0  0  0
   33.8070    4.6630   27.4200 N   0  0  0  0  0  0  0  0  0  0  0  0
   29.6840    9.7800   29.4370 C   0  0  0  0  0  0  0  0  0  0  0  0
   31.5900   12.6370   28.0800 C   0  0  0  0  0  0  0  0  0  0  0  0
   31.7500   12.8130   29.4820 C   0  0  0  0  0  0  0  0  0  0  0  0
   31.0930   13.8770   30.1310 C   0  0  0  0  0  0  0  0  0  0  0  0
   30.2750   14.7770   29.4330 C   0  0  0  0  0  0  0  0  0  0  0  0
   30.1240   14.5950   28.0480 C   0  0  0  0  0  0  0  0  0  0  0  0
   30.7610   13.5460   27.3510 C   0  0  0  0  0  0  0  0  0  0  0  0
   32.6300   11.8780   30.3600 C   0  0  0  0  0  0  0  0  0  0  0  0
   32.0080   11.3980   31.7110 C   0  0  0  0  0  0  0  0  0  0  0  0
   33.9700   12.5970   30.6480 C   0  0  0  0  0  0  0  0  0  0  0  0
   30.4990   13.4630   25.8130 C   0  0  0  0  0  0  0  0  0  0  0  0
   29.2990   14.3090   25.2880 C   0  0  0  0  0  0  0  0  0  0  0  0
   31.7960   13.8740   25.0610 C   0  0  0  0  0  0  0  0  0  0  0  0
   29.5630   15.9340   30.1640 C   0  0  0  0  0  0  0  0  0  0  0  0
   30.4990   16.5520   31.2360 C   0  0  0  0  0  0  0  0  0  0  0  0
   28.2440   15.4270   30.8150 C   0  0  0  0  0  0  0  0  0  0  0  0
   32.4540   11.2360   27.2800 S   0  0  0  0  0  0  0  0  0  0  0  0
   33.8460   11.1910   27.6990 O   0  0  0  0  0  0  0  0  0  0  0  0
   32.2220   11.1400   25.8530 O   0  0  0  0  0  0  0  0  0  0  0  0
   28.5060   10.3520   29.8970 N   0  0  0  0  0  0  0  0  0  0  0  0
   28.1020   10.1310   31.2920 C   0  0  0  0  0  0  0  0  0  0  0  0
   27.8850   11.5420   31.8800 C   0  0  0  0  0  0  0  0  0  0  0  0
   26.6970   12.1140   31.2380 N   0  0  0  0  0  0  0  0  0  0  0  0
   26.9930   12.1820   29.7220 C   0  0  0  0  0  0  0  0  0  0  0  0
   27.3050   10.9740   29.0810 C   0  0  0  0  0  0  0  0  0  0  0  0
   25.8310   12.9190   31.9340 C   0  0  0  0  0  0  0  0  0  0  0  0
   25.0310   13.6610   31.3740 O   0  0  0  0  0  0  0  0  0  0  0  0
   25.7870   12.9630   33.4550 C   0  0  0  0  0  0  0  0  0  0  0  0
   24.7450   13.9910   33.9940 C   0  0  0  0  0  0  0  0  0  0  0  0
   25.0050   14.3210   35.4170 N   0  0  0  0  0  0  0  0  0  0  0  0
  2  1  1  0
 30  1  1  0
  5  2  1  0
 14  2  1  0
  8  3  1  0
 12  3  1  0
 13  3  2  0
 14  4  2  0
  6  5  1  0
  7  6  2  0
 11  6  1  0
  8  7  1  0
  9  8  2  0
 10  9  1  0
 11 10  2  0
 33 14  1  0
 16 15  2  0
 20 15  1  0
 30 15  1  0
 17 16  1  0
 21 16  1  0
 18 17  2  0
 19 18  1  0
 27 18  1  0
 20 19  2  0
 24 20  1  0
 22 21  1  0
 23 21  1  0
 25 24  1  0
 26 24  1  0
 28 27  1  0
 29 27  1  0
 31 30  2  0
 32 30  2  0
 34 33  1  0
 38 33  1  0
 35 34  1  0
 36 35  1  0
 37 36  1  0
 39 36  1  0
 38 37  1  0
 40 39  2  0
 41 39  1  0
 42 41  1  0
 43 42  1  0
A    1
N
A    2
CA
A    3
CX
A    4
O
A    5
CB
A    6
CG1
A    7
CD1
A    8
CE1
A    9
CZ
A   10
CE2
A   11
CD2
A   12
NX1
A   13
NX2
A   14
C
A   15
C6
A   16
C7
A   17
C8
A   18
C9
A   19
C10
A   20
C11
A   21
C12
A   22
C13
A   23
C14
A   24
C15
A   25
C16
A   26
C17
A   27
C18
A   28
C19
A   29
C20
A   30
S
A   31
OS1
A   32
OS2
A   33
N1
A   34
C1
A   35
C2
A   36
N2
A   37
C4
A   38
C5
A   39
C21
A   40
O1
A   41
C22
A   42
C23
A   43
N24
M  END
>  <Id>  (44) 
1F92_UKP_A_300

>  <ChainId>  (44) 
A

>  <AsymId>  (44) 
D

>  <SeqNum>  (44) 
300

>  <Name>  (44) 
[2,4,6-TRIISOPROPYL-PHENYLSULFONYL-L-[3-AMIDINO-PHENYLALANINYL]]-N'-BETA-ALANINYL-PIPERAZINE

>  <SystematicName>  (44) 
3-[(2S)-3-[4-(3-aminopropanoyl)piperazin-1-yl]-3-oxo-2-[[2,4,6-tri(propan-2-yl)phenyl]sulfonylamino]propyl]benzenecarboximidamide

>  <Synonyms>  (44) 
[2,4,6-TRIISOPROPYL-PHENYLSULFONYL-L-[3-AMIDINO-PHENYLALANINE]]-PIPERAZINE-N'-BETA-ALANINE

>  <Type>  (44) 
NON-POLYMER

>  <Formula>  (44) 
C32 H48 N6 O4 S

>  <ObservedFormula>  (44) 
C32 S N6 O4

>  <MolecularWeight>  (44) 
612.826

>  <ModifiedDate>  (44) 
2011-06-04

>  <Parent>  (44) 


>  <OneLetterCode>  (44) 


>  <SubcomponentList>  (44) 


>  <AmbiguousFlag>  (44) 
N

>  <InsertionCode>  (44) 


>  <InstanceId>  (44) 
1F92_UKP_A_300

>  <ChemCompId>  (44) 
UKP

>  <PdbId>  (44) 
1F92

>  <ResidueNumber>  (44) 
300

>  <InChI>  (44) 
InChI=1S/C32H48N6O4S/c1-20(2)25-18-26(21(3)4)30(27(19-25)22(5)6)43(41,42)36-28(17-23-8-7-9-24(16-23)31(34)35)32(40)38-14-12-37(13-15-38)29(39)10-11-33/h7-9,16,18-22,28,36H,10-15,17,33H2,1-6H3,(H3,34,35)/t28-/m0/s1

>  <InChIKey>  (44) 
WATXEHGLYJKXOF-NDEPHWFRSA-N

>  <SMILES>  (44) 
CC(C)c1cc(c(c(c1)C(C)C)S(=O)(=O)N[C@@H](Cc2cccc(c2)C(=N)N)C(=O)N3CCN(CC3)C(=O)CCN)C(C)C

>  <MissingHeavyAtoms>  (44) 
0

>  <Model>  (44) 
1

>  <AltIds>  (44) 


>  <pKI>  (44) 
6.19

>  <ChemblID>  (44) 
CHEMBL212616

>  <standardized_canonical_smiles>  (44) 
CC(C)c1cc(C(C)C)c(S(=O)(=O)N[C@@H](Cc2cccc(C(=N)N)c2)C(=O)N2CCN(C(=O)CCN)CC2)c(C(C)C)c1

$$$$
2VNT_QGG_A_1258
     RDKit          3D

 26 28  0  0  0  0  0  0  0  0999 V2000
  -40.9210  177.4850   70.2010 N   0  0  0  0  0  0  0  0  0  0  0  0
  -40.7980  176.3480   69.4720 C   0  0  0  0  0  0  0  0  0  0  0  0
  -40.2510  175.2830   69.9750 N   0  0  0  0  0  0  0  0  0  0  0  0
  -39.8180  175.1510   71.2640 C   0  0  0  0  0  0  0  0  0  0  0  0
  -40.2230  175.9580   72.2200 N   0  0  0  0  0  0  0  0  0  0  0  0
  -39.8550  175.8330   73.4880 C   0  0  0  0  0  0  0  0  0  0  0  0
  -39.0350  174.8050   73.8810 C   0  0  0  0  0  0  0  0  0  0  0  0
  -38.5660  174.6890   75.5150 Cl  0  0  0  0  0  0  0  0  0  0  0  0
  -38.5440  173.8570   72.9590 C   0  0  0  0  0  0  0  0  0  0  0  0
  -37.6860  172.7860   73.3360 C   0  0  0  0  0  0  0  0  0  0  0  0
  -37.2630  171.9350   72.3950 C   0  0  0  0  0  0  0  0  0  0  0  0
  -37.6400  172.1200   71.0650 C   0  0  0  0  0  0  0  0  0  0  0  0
  -38.4680  173.1250   70.6660 C   0  0  0  0  0  0  0  0  0  0  0  0
  -38.9290  174.0240   71.6130 C   0  0  0  0  0  0  0  0  0  0  0  0
  -36.9920  171.0050   69.8890 S   0  0  0  0  0  0  0  0  0  0  0  0
  -37.2850  171.4480   68.5580 O   0  0  0  0  0  0  0  0  0  0  0  0
  -35.7080  170.9240   70.3800 O   0  0  0  0  0  0  0  0  0  0  0  0
  -37.8400  169.5680   70.1460 N   0  0  0  0  0  0  0  0  0  0  0  0
  -37.4950  168.4640   71.0630 C   0  0  0  0  0  0  0  0  0  0  0  0
  -38.8610  167.8720   71.4960 C   0  0  0  0  0  0  0  0  0  0  0  0
  -39.7580  168.0070   70.2380 C   0  0  0  0  0  0  0  0  0  0  0  0
  -39.1120  169.2010   69.5140 C   0  0  0  0  0  0  0  0  0  0  0  0
  -38.8990  168.8190   68.0830 C   0  0  0  0  0  0  0  0  0  0  0  0
  -37.9160  168.2270   67.6480 O   0  0  0  0  0  0  0  0  0  0  0  0
  -39.8930  169.1860   67.2920 O   0  0  0  0  0  0  0  0  0  0  0  0
  -41.1920  176.2670   68.1890 N   0  0  0  0  0  0  0  0  0  0  0  0
  2  1  1  0
  3  2  2  3
 26  2  1  0
  4  3  1  0
  5  4  2  0
 14  4  1  0
  6  5  1  0
  7  6  2  0
  8  7  1  0
  9  7  1  0
 10  9  1  0
 14  9  2  0
 11 10  2  0
 12 11  1  0
 13 12  2  0
 15 12  1  0
 14 13  1  0
 16 15  2  0
 17 15  2  0
 18 15  1  0
 19 18  1  0
 22 18  1  0
 20 19  1  0
 21 20  1  0
 22 21  1  0
 23 22  1  0
 24 23  2  0
 25 23  1  0
A    1
N1
A    2
C2
A    3
N3
A    4
C4
A    5
N5
A    6
C6
A    7
C7
A    8
CL8
A    9
C9
A   10
C10
A   11
C11
A   12
C12
A   13
C13
A   14
C14
A   15
S15
A   16
O16
A   17
O17
A   18
N18
A   19
C19
A   20
C20
A   21
C21
A   22
C22
A   23
C24
A   24
O25
A   25
O26
A   26
N27
M  END
>  <Id>  (45) 
2VNT_QGG_A_1258

>  <ChainId>  (45) 
A

>  <AsymId>  (45) 
G

>  <SeqNum>  (45) 
1258

>  <Name>  (45) 
1-({4-CHLORO-1-[(DIAMINOMETHYLIDENE)AMINO]ISOQUINOLIN-7-YL}SULFONYL)-D-PROLINE

>  <SystematicName>  (45) 
(2R)-1-[4-chloro-1-(diaminomethylideneamino)isoquinolin-7-yl]sulfonylpyrrolidine-2-carboxylic acid

>  <Synonyms>  (45) 


>  <Type>  (45) 
non-polymer

>  <Formula>  (45) 
C15 H16 Cl N5 O4 S

>  <ObservedFormula>  (45) 
C15 S Cl N5 O4

>  <MolecularWeight>  (45) 
397.837

>  <ModifiedDate>  (45) 
2011-06-04

>  <Parent>  (45) 


>  <OneLetterCode>  (45) 


>  <SubcomponentList>  (45) 


>  <AmbiguousFlag>  (45) 


>  <InsertionCode>  (45) 


>  <InstanceId>  (45) 
2VNT_QGG_A_1258

>  <ChemCompId>  (45) 
QGG

>  <PdbId>  (45) 
2VNT

>  <ResidueNumber>  (45) 
1258

>  <InChI>  (45) 
InChI=1S/C15H16ClN5O4S/c16-11-7-19-13(20-15(17)18)10-6-8(3-4-9(10)11)26(24,25)21-5-1-2-12(21)14(22)23/h3-4,6-7,12H,1-2,5H2,(H,22,23)(H4,17,18,19,20)/t12-/m1/s1

>  <InChIKey>  (45) 
MWEYSFQTTAFUFL-GFCCVEGCSA-N

>  <SMILES>  (45) 
c1cc2c(cc1S(=O)(=O)N3CCC[C@@H]3C(=O)O)c(ncc2Cl)N=C(N)N

>  <MissingHeavyAtoms>  (45) 
0

>  <Model>  (45) 
1

>  <AltIds>  (45) 


>  <pKI>  (45) 
8.0

>  <ChemblID>  (45) 
CHEMBL227990

>  <standardized_canonical_smiles>  (45) 
N=C(N)Nc1ncc(Cl)c2ccc(S(=O)(=O)N3CCC[C@@H]3C(=O)O)cc12

$$$$
1W13_SM1_U_1245
     RDKit          3D

 33 34  0  0  0  0  0  0  0  0999 V2000
   35.2150    4.5230   27.3340 N   0  0  0  0  0  0  0  0  0  0  0  0
   33.8740    4.5620   27.5210 C   0  0  0  0  0  0  0  0  0  0  0  0
   33.2280    3.3910   27.5790 N   0  0  0  0  0  0  0  0  0  0  0  0
   33.2140    5.7360   27.6500 N   0  0  0  0  0  0  0  0  0  0  0  0
   31.9150    6.0040   27.9610 C   0  0  0  0  0  0  0  0  0  0  0  0
   31.2870    7.0540   27.2660 C   0  0  0  0  0  0  0  0  0  0  0  0
   30.0050    7.4920   27.6570 C   0  0  0  0  0  0  0  0  0  0  0  0
   29.3460    6.8600   28.7290 C   0  0  0  0  0  0  0  0  0  0  0  0
   29.9450    5.7410   29.3510 C   0  0  0  0  0  0  0  0  0  0  0  0
   31.2040    5.2770   28.9450 C   0  0  0  0  0  0  0  0  0  0  0  0
   28.0340    7.3360   29.2240 C   0  0  0  0  0  0  0  0  0  0  0  0
   28.1660    8.2190   30.3150 N   0  0  0  0  0  0  0  0  0  0  0  0
   28.4450    9.5010   30.1970 C   0  0  0  0  0  0  0  0  0  0  0  0
   28.5460   10.0700   29.1000 O   0  0  0  0  0  0  0  0  0  0  0  0
   28.6590   10.3160   31.3940 C   0  0  0  0  0  0  0  0  0  0  0  0
   27.4340   11.2240   31.6640 C   0  0  0  0  0  0  0  0  0  0  0  0
   29.7590   11.1820   31.2470 N   0  0  0  0  0  0  0  0  0  0  0  0
   31.0080   10.8900   30.9890 C   0  0  0  0  0  0  0  0  0  0  0  0
   32.0080   11.9490   30.8560 C   0  0  0  0  0  0  0  0  0  0  0  0
   32.7220   12.2720   32.1990 C   0  0  0  0  0  0  0  0  0  0  0  0
   31.7500   12.5830   33.2100 O   0  0  0  0  0  0  0  0  0  0  0  0
   33.1030   11.5940   29.9160 N   0  0  0  0  0  0  0  0  0  0  0  0
   31.3520    9.7150   30.8480 O   0  0  0  0  0  0  0  0  0  0  0  0
   32.3880   13.3910   28.0760 O   0  0  0  0  0  0  0  0  0  0  0  0
   32.8660   11.9360   28.2830 S   0  0  0  0  0  0  0  0  0  0  0  0
   34.2430   11.6550   27.6120 O   0  0  0  0  0  0  0  0  0  0  0  0
   31.6480   10.8760   27.6040 C   0  0  0  0  0  0  0  0  0  0  0  0
   31.4700   11.0880   26.1490 C   0  0  0  0  0  0  0  0  0  0  0  0
   32.2100   10.3160   25.2160 C   0  0  0  0  0  0  0  0  0  0  0  0
   32.0930   10.5360   23.8260 C   0  0  0  0  0  0  0  0  0  0  0  0
   31.1900   11.5140   23.3590 C   0  0  0  0  0  0  0  0  0  0  0  0
   30.4040   12.2470   24.2780 C   0  0  0  0  0  0  0  0  0  0  0  0
   30.5650   12.0620   25.6730 C   0  0  0  0  0  0  0  0  0  0  0  0
  2  1  1  0
  3  2  2  0
  4  2  1  0
  5  4  1  0
  6  5  2  0
 10  5  1  0
  7  6  1  0
  8  7  2  0
  9  8  1  0
 11  8  1  0
 10  9  2  0
 12 11  1  0
 13 12  1  0
 14 13  2  0
 15 13  1  0
 16 15  1  0
 17 15  1  0
 18 17  1  0
 19 18  1  0
 23 18  2  0
 20 19  1  0
 22 19  1  0
 21 20  1  0
 25 22  1  0
 25 24  2  0
 26 25  2  0
 27 25  1  0
 28 27  1  0
 29 28  2  0
 33 28  1  0
 30 29  1  0
 31 30  2  0
 32 31  1  0
 33 32  2  0
A    1
N6
A    2
C18
A    3
N5
A    4
N4
A    5
C14
A    6
C13
A    7
C12
A    8
C17
A    9
C16
A   10
C15
A   11
C11
A   12
N3
A   13
C10
A   14
O5
A   15
C8
A   16
C22
A   17
N2
A   18
C7
A   19
C5
A   20
C6
A   21
O3
A   22
N1
A   23
O4
A   24
O2
A   25
S1
A   26
O1
A   27
C1
A   28
C4
A   29
C19
A   30
C20
A   31
C21
A   32
C2
A   33
C3
M  END
>  <Id>  (46) 
1W13_SM1_U_1245

>  <ChainId>  (46) 
U

>  <AsymId>  (46) 
B

>  <SeqNum>  (46) 
1245

>  <Name>  (46) 
N-(BENZYLSULFONYL)-D-SERYL-N-(4-{[AMINO(IMINO)METHYL]AMINO}BENZYL)-L-ALANINAMIDE

>  <SystematicName>  (46) 
(2R)-N-[(2S)-1-[(4-carbamimidamidophenyl)methylamino]-1-oxo-propan-2-yl]-3-hydroxy-2-(phenylmethylsulfonylamino)propanamide

>  <Synonyms>  (46) 


>  <Type>  (46) 
NON-POLYMER

>  <Formula>  (46) 
C21 H28 N6 O5 S

>  <ObservedFormula>  (46) 
C21 S N6 O5

>  <MolecularWeight>  (46) 
476.549

>  <ModifiedDate>  (46) 
2011-06-04

>  <Parent>  (46) 


>  <OneLetterCode>  (46) 


>  <SubcomponentList>  (46) 


>  <AmbiguousFlag>  (46) 
N

>  <InsertionCode>  (46) 


>  <InstanceId>  (46) 
1W13_SM1_U_1245

>  <ChemCompId>  (46) 
SM1

>  <PdbId>  (46) 
1W13

>  <ResidueNumber>  (46) 
1245

>  <InChI>  (46) 
InChI=1S/C21H28N6O5S/c1-14(19(29)24-11-15-7-9-17(10-8-15)26-21(22)23)25-20(30)18(12-28)27-33(31,32)13-16-5-3-2-4-6-16/h2-10,14,18,27-28H,11-13H2,1H3,(H,24,29)(H,25,30)(H4,22,23,26)/t14-,18+/m0/s1

>  <InChIKey>  (46) 
GIFIGLJPDYSYDF-KBXCAEBGSA-N

>  <SMILES>  (46) 
[H]/N=C(/N)\Nc1ccc(cc1)CNC(=O)[C@H](C)NC(=O)[C@@H](CO)NS(=O)(=O)Cc2ccccc2

>  <MissingHeavyAtoms>  (46) 
0

>  <Model>  (46) 
1

>  <AltIds>  (46) 


>  <pKI>  (46) 
7.8

>  <ChemblID>  (46) 
CHEMBL238902

>  <standardized_canonical_smiles>  (46) 
C[C@H](NC(=O)[C@@H](CO)NS(=O)(=O)Cc1ccccc1)C(=O)NCc1ccc(NC(=N)N)cc1

$$$$
1VJA_7IN_U_300
     RDKit          3D

 33 34  0  0  0  0  0  0  0  0999 V2000
   26.6200   11.5010   30.3330 O   0  0  0  0  0  0  0  0  0  0  0  0
   27.6950   11.4140   31.2160 C   0  0  0  0  0  0  0  0  0  0  0  0
   28.9390   10.5140   31.0670 C   0  0  0  0  0  0  0  0  0  0  0  0
   30.0860   11.4000   31.0500 N   0  0  0  0  0  0  0  0  0  0  0  0
   31.4060   10.9170   30.9290 C   0  0  0  0  0  0  0  0  0  0  0  0
   32.5150   11.9670   30.9090 C   0  0  0  0  0  0  0  0  0  0  0  0
   33.5050   11.7890   29.8860 N   0  0  0  0  0  0  0  0  0  0  0  0
   33.4490   12.0880   28.2590 S   0  0  0  0  0  0  0  0  0  0  0  0
   32.0990   11.1390   27.5200 C   0  0  0  0  0  0  0  0  0  0  0  0
   32.1310   11.3430   26.0080 C   0  0  0  0  0  0  0  0  0  0  0  0
   31.8260   12.6110   25.3700 C   0  0  0  0  0  0  0  0  0  0  0  0
   31.8810   12.7340   23.9270 C   0  0  0  0  0  0  0  0  0  0  0  0
   32.2400   11.5820   23.1410 C   0  0  0  0  0  0  0  0  0  0  0  0
   32.5410   10.3240   23.7700 C   0  0  0  0  0  0  0  0  0  0  0  0
   32.4870   10.2030   25.2030 C   0  0  0  0  0  0  0  0  0  0  0  0
   33.1630   13.4880   28.1530 O   0  0  0  0  0  0  0  0  0  0  0  0
   34.8170   11.6920   27.8400 O   0  0  0  0  0  0  0  0  0  0  0  0
   33.3410   12.0460   32.1970 C   0  0  0  0  0  0  0  0  0  0  0  0
   32.4440   12.2230   33.2660 O   0  0  0  0  0  0  0  0  0  0  0  0
   31.6740    9.7320   30.8350 O   0  0  0  0  0  0  0  0  0  0  0  0
   28.8140    9.7060   29.7820 C   0  0  0  0  0  0  0  0  0  0  0  0
   28.9940   10.2470   28.7110 O   0  0  0  0  0  0  0  0  0  0  0  0
   28.5130    8.3620   29.9660 N   0  0  0  0  0  0  0  0  0  0  0  0
   28.3800    7.4570   28.8450 C   0  0  0  0  0  0  0  0  0  0  0  0
   29.6510    6.6940   28.4840 C   0  0  0  0  0  0  0  0  0  0  0  0
   29.7260    5.2930   28.7870 C   0  0  0  0  0  0  0  0  0  0  0  0
   30.8930    4.5330   28.4710 C   0  0  0  0  0  0  0  0  0  0  0  0
   32.0570    5.1440   27.8310 C   0  0  0  0  0  0  0  0  0  0  0  0
   32.0060    6.5630   27.5140 C   0  0  0  0  0  0  0  0  0  0  0  0
   30.8100    7.3170   27.8420 C   0  0  0  0  0  0  0  0  0  0  0  0
   33.1900    4.3320   27.5450 C   0  0  0  0  0  0  0  0  0  0  0  0
   33.1990    3.0170   27.8500 N   0  0  0  0  0  0  0  0  0  0  0  0
   34.3300    4.7580   26.9660 N   0  0  0  0  0  0  0  0  0  0  0  0
  2  1  1  0
  3  2  1  0
  4  3  1  0
 21  3  1  0
  5  4  1  0
  6  5  1  0
 20  5  2  0
  7  6  1  0
 18  6  1  0
  8  7  1  0
  9  8  1  0
 16  8  2  0
 17  8  2  0
 10  9  1  0
 11 10  2  0
 15 10  1  0
 12 11  1  0
 13 12  2  0
 14 13  1  0
 15 14  2  0
 19 18  1  0
 22 21  2  0
 23 21  1  0
 24 23  1  0
 25 24  1  0
 26 25  2  0
 30 25  1  0
 27 26  1  0
 28 27  2  0
 29 28  1  0
 31 28  1  0
 30 29  2  0
 32 31  2  0
 33 31  1  0
A    1
O2
A    2
C3
A    3
C4
A    4
N5
A    5
C6
A    6
C7
A    7
N8
A    8
S9
A    9
C10
A   10
C11
A   11
C12
A   12
C13
A   13
C14
A   14
C15
A   15
C16
A   16
O17
A   17
O18
A   18
C19
A   19
O20
A   20
O21
A   21
C22
A   22
O23
A   23
N24
A   24
C25
A   25
C26
A   26
C27
A   27
C28
A   28
C29
A   29
C30
A   30
C31
A   31
C32
A   32
N33
A   33
N34
M  END
>  <Id>  (47) 
1VJA_7IN_U_300

>  <ChainId>  (47) 
U

>  <AsymId>  (47) 
D

>  <SeqNum>  (47) 
300

>  <Name>  (47) 
N-(BENZYLSULFONYL)SERYL-N~1~-{4-[(Z)-AMINO(IMINO)METHYL]BENZYL}SERINAMIDE

>  <SystematicName>  (47) 
(2S)-N-[(4-carbamimidoylphenyl)methyl]-3-hydroxy-2-[[(2R)-3-hydroxy-2-(phenylmethylsulfonylamino)propanoyl]amino]propanamide

>  <Synonyms>  (47) 


>  <Type>  (47) 
NON-POLYMER

>  <Formula>  (47) 
C21 H27 N5 O6 S

>  <ObservedFormula>  (47) 
C21 S N5 O6

>  <MolecularWeight>  (47) 
477.534

>  <ModifiedDate>  (47) 
2011-06-04

>  <Parent>  (47) 


>  <OneLetterCode>  (47) 


>  <SubcomponentList>  (47) 


>  <AmbiguousFlag>  (47) 
N

>  <InsertionCode>  (47) 


>  <InstanceId>  (47) 
1VJA_7IN_U_300

>  <ChemCompId>  (47) 
7IN

>  <PdbId>  (47) 
1VJA

>  <ResidueNumber>  (47) 
300

>  <InChI>  (47) 
InChI=1S/C21H27N5O6S/c22-19(23)16-8-6-14(7-9-16)10-24-20(29)17(11-27)25-21(30)18(12-28)26-33(31,32)13-15-4-2-1-3-5-15/h1-9,17-18,26-28H,10-13H2,(H3,22,23)(H,24,29)(H,25,30)/t17-,18+/m0/s1

>  <InChIKey>  (47) 
ZNOKJHWJKULOGM-ZWKOTPCHSA-N

>  <SMILES>  (47) 
c1ccc(cc1)CS(=O)(=O)N[C@H](CO)C(=O)N[C@@H](CO)C(=O)NCc2ccc(cc2)C(=N)N

>  <MissingHeavyAtoms>  (47) 
0

>  <Model>  (47) 
1

>  <AltIds>  (47) 


>  <pKI>  (47) 
7.7

>  <ChemblID>  (47) 
CHEMBL252937

>  <standardized_canonical_smiles>  (47) 
N=C(N)c1ccc(CNC(=O)[C@H](CO)NC(=O)[C@@H](CO)NS(=O)(=O)Cc2ccccc2)cc1

$$$$
4FUE_7UP_A_301
     RDKit          3D

 25 28  0  0  0  0  0  0  0  0999 V2000
   -8.8350  -21.1440    6.5210 N   0  0  0  0  0  0  0  0  0  0  0  0
   -9.2700  -19.9210    7.0160 C   0  0  0  0  0  0  0  0  0  0  0  0
  -10.4720  -19.6210    7.2440 N   0  0  0  0  0  0  0  0  0  0  0  0
   -8.2550  -18.8350    7.3270 C   0  0  0  0  0  0  0  0  0  0  0  0
   -7.0130  -18.8150    6.7220 C   0  0  0  0  0  0  0  0  0  0  0  0
   -6.1020  -17.7450    6.9540 C   0  0  0  0  0  0  0  0  0  0  0  0
   -6.4740  -16.6830    7.8380 C   0  0  0  0  0  0  0  0  0  0  0  0
   -7.7750  -16.7070    8.4550 C   0  0  0  0  0  0  0  0  0  0  0  0
   -8.6490  -17.7510    8.2200 C   0  0  0  0  0  0  0  0  0  0  0  0
   -4.7970  -17.7540    6.3390 C   0  0  0  0  0  0  0  0  0  0  0  0
   -3.8940  -16.7490    6.6110 C   0  0  0  0  0  0  0  0  0  0  0  0
   -4.2480  -15.6960    7.5340 C   0  0  0  0  0  0  0  0  0  0  0  0
   -5.5140  -15.6600    8.1380 C   0  0  0  0  0  0  0  0  0  0  0  0
   -3.2580  -14.7210    7.8640 C   0  0  0  0  0  0  0  0  0  0  0  0
   -2.4410  -13.9240    8.1770 C   0  0  0  0  0  0  0  0  0  0  0  0
   -1.4780  -12.9850    8.6330 C   0  0  0  0  0  0  0  0  0  0  0  0
   -1.4060  -12.7530   10.0050 C   0  0  0  0  0  0  0  0  0  0  0  0
   -0.4660  -11.8530   10.5300 C   0  0  0  0  0  0  0  0  0  0  0  0
    0.4120  -11.1530    9.6330 C   0  0  0  0  0  0  0  0  0  0  0  0
    0.3190  -11.3870    8.2500 C   0  0  0  0  0  0  0  0  0  0  0  0
   -0.6200  -12.3070    7.7450 C   0  0  0  0  0  0  0  0  0  0  0  0
   -0.3760  -11.6980   12.0370 C   0  0  0  0  0  0  0  0  0  0  0  0
    0.8030  -10.8200   12.5510 C   0  0  0  0  0  0  0  0  0  0  0  0
    1.8960  -10.5960   11.5720 N   0  0  0  0  0  0  0  0  0  0  0  0
    1.4510  -10.2020   10.2060 C   0  0  0  0  0  0  0  0  0  0  0  0
  2  1  1  0
  3  2  2  0
  4  2  1  0
  5  4  2  0
  9  4  1  0
  6  5  1  0
  7  6  2  0
 10  6  1  0
  8  7  1  0
 13  7  1  0
  9  8  2  0
 11 10  2  0
 12 11  1  0
 13 12  2  0
 14 12  1  0
 15 14  3  0
 16 15  1  0
 17 16  2  0
 21 16  1  0
 18 17  1  0
 19 18  2  0
 22 18  1  0
 20 19  1  0
 25 19  1  0
 21 20  2  0
 23 22  1  0
 24 23  1  0
 25 24  1  0
A    1
N2
A    2
C1
A    3
N1
A    4
C2
A    5
C11
A    6
C10
A    7
C5
A    8
C4
A    9
C3
A   10
C9
A   11
C8
A   12
C7
A   13
C6
A   14
C12
A   15
C13
A   16
C14
A   17
C22
A   18
C21
A   19
C17
A   20
C16
A   21
C15
A   22
C20
A   23
C19
A   24
N3
A   25
C18
M  END
>  <Id>  (48) 
4FUE_7UP_A_301

>  <ChainId>  (48) 
A

>  <AsymId>  (48) 
B

>  <SeqNum>  (48) 
301

>  <Name>  (48) 
6-(1,2,3,4-tetrahydroisoquinolin-6-ylethynyl)naphthalene-2-carboximidamide

>  <SystematicName>  (48) 
6-[2-(1,2,3,4-tetrahydroisoquinolin-6-yl)ethynyl]naphthalene-2-carboximidamide

>  <Synonyms>  (48) 


>  <Type>  (48) 
NON-POLYMER

>  <Formula>  (48) 
C22 H19 N3

>  <ObservedFormula>  (48) 
C22 N3

>  <MolecularWeight>  (48) 
325.406

>  <ModifiedDate>  (48) 
2012-08-17

>  <Parent>  (48) 


>  <OneLetterCode>  (48) 


>  <SubcomponentList>  (48) 


>  <AmbiguousFlag>  (48) 
N

>  <InsertionCode>  (48) 


>  <InstanceId>  (48) 
4FUE_7UP_A_301

>  <ChemCompId>  (48) 
7UP

>  <PdbId>  (48) 
4FUE

>  <ResidueNumber>  (48) 
301

>  <InChI>  (48) 
InChI=1S/C22H19N3/c23-22(24)20-8-7-17-11-15(3-5-18(17)13-20)1-2-16-4-6-21-14-25-10-9-19(21)12-16/h3-8,11-13,25H,9-10,14H2,(H3,23,24)

>  <InChIKey>  (48) 
ACKRFKIRNILEQJ-UHFFFAOYSA-N

>  <SMILES>  (48) 
[H]/N=C(/c1ccc2cc(ccc2c1)C#Cc3ccc4c(c3)CCNC4)\N

>  <MissingHeavyAtoms>  (48) 
0

>  <Model>  (48) 
1

>  <AltIds>  (48) 


>  <pKI>  (48) 
7.2

>  <ChemblID>  (48) 
CHEMBL561413

>  <standardized_canonical_smiles>  (48) 
N=C(N)c1ccc2cc(C#Cc3ccc4c(c3)CCNC4)ccc2c1

$$$$
4FU7_1UP_A_305
     RDKit          3D

 20 21  0  0  0  0  0  0  0  0999 V2000
   25.5480  -20.4210    5.8190 O   0  0  0  0  0  0  0  0  0  0  0  0
   25.0660  -19.2700    5.8350 C   0  0  0  0  0  0  0  0  0  0  0  0
   25.8700  -18.1600    5.6000 N   0  0  0  0  0  0  0  0  0  0  0  0
   23.5760  -19.0620    6.1680 C   0  0  0  0  0  0  0  0  0  0  0  0
   23.0430  -17.8650    5.5890 O   0  0  0  0  0  0  0  0  0  0  0  0
   22.5130  -16.9950    6.5250 C   0  0  0  0  0  0  0  0  0  0  0  0
   23.2810  -15.9050    6.9730 C   0  0  0  0  0  0  0  0  0  0  0  0
   24.5190  -15.7580    6.3660 O   0  0  0  0  0  0  0  0  0  0  0  0
   25.5550  -15.0590    7.0650 C   0  0  0  0  0  0  0  0  0  0  0  0
   21.1760  -17.2420    7.1190 C   0  0  0  0  0  0  0  0  0  0  0  0
   20.7220  -16.3390    8.1520 C   0  0  0  0  0  0  0  0  0  0  0  0
   21.5370  -15.2510    8.5790 C   0  0  0  0  0  0  0  0  0  0  0  0
   22.7650  -15.0190    8.0180 C   0  0  0  0  0  0  0  0  0  0  0  0
   20.3210  -18.3470    6.7510 C   0  0  0  0  0  0  0  0  0  0  0  0
   19.0830  -18.5130    7.3660 C   0  0  0  0  0  0  0  0  0  0  0  0
   18.1210  -19.6110    6.9290 C   0  0  0  0  0  0  0  0  0  0  0  0
   16.8870  -19.3950    7.1020 N   0  0  0  0  0  0  0  0  0  0  0  0
   18.6390  -20.7520    6.3880 N   0  0  0  0  0  0  0  0  0  0  0  0
   18.6440  -17.5820    8.3970 C   0  0  0  0  0  0  0  0  0  0  0  0
   19.4380  -16.5320    8.7750 C   0  0  0  0  0  0  0  0  0  0  0  0
  2  1  2  0
  3  2  1  0
  4  2  1  0
  5  4  1  0
  6  5  1  0
  7  6  2  0
 10  6  1  0
  8  7  1  0
 13  7  1  0
  9  8  1  0
 11 10  2  0
 14 10  1  0
 12 11  1  0
 20 11  1  0
 13 12  2  0
 15 14  2  0
 16 15  1  0
 19 15  1  0
 17 16  1  0
 18 16  2  0
 20 19  2  0
A    1
O3
A    2
C13
A    3
N1
A    4
C12
A    5
O2
A    6
C11
A    7
C2
A    8
O1
A    9
C1
A   10
C10
A   11
C5
A   12
C4
A   13
C3
A   14
C9
A   15
C8
A   16
C14
A   17
N3
A   18
N2
A   19
C7
A   20
C6
M  END
>  <Id>  (49) 
4FU7_1UP_A_305

>  <ChainId>  (49) 
A

>  <AsymId>  (49) 
F

>  <SeqNum>  (49) 
305

>  <Name>  (49) 
2-[(7-carbamimidoyl-2-methoxynaphthalen-1-yl)oxy]acetamide

>  <SystematicName>  (49) 
2-(7-carbamimidoyl-2-methoxy-naphthalen-1-yl)oxyethanamide

>  <Synonyms>  (49) 


>  <Type>  (49) 
NON-POLYMER

>  <Formula>  (49) 
C14 H15 N3 O3

>  <ObservedFormula>  (49) 
C14 N3 O3

>  <MolecularWeight>  (49) 
273.287

>  <ModifiedDate>  (49) 
2012-08-17

>  <Parent>  (49) 


>  <OneLetterCode>  (49) 


>  <SubcomponentList>  (49) 


>  <AmbiguousFlag>  (49) 
N

>  <InsertionCode>  (49) 


>  <InstanceId>  (49) 
4FU7_1UP_A_305

>  <ChemCompId>  (49) 
1UP

>  <PdbId>  (49) 
4FU7

>  <ResidueNumber>  (49) 
305

>  <InChI>  (49) 
InChI=1S/C14H15N3O3/c1-19-11-5-4-8-2-3-9(14(16)17)6-10(8)13(11)20-7-12(15)18/h2-6H,7H2,1H3,(H2,15,18)(H3,16,17)

>  <InChIKey>  (49) 
ILLPJIZSGRJOPC-UHFFFAOYSA-N

>  <SMILES>  (49) 
[H]/N=C(/c1ccc2ccc(c(c2c1)OCC(=O)N)OC)\N

>  <MissingHeavyAtoms>  (49) 
0

>  <Model>  (49) 
1

>  <AltIds>  (49) 


>  <pKI>  (49) 
6.2

>  <ChemblID>  (49) 
CHEMBL540173

>  <standardized_canonical_smiles>  (49) 
COc1ccc2ccc(C(=N)N)cc2c1OCC(N)=O

$$$$
4FUH_1U2_A_301
     RDKit          3D

 23 25  0  0  0  0  0  0  0  0999 V2000
   -1.2310  -16.1350    6.9220 O   0  0  0  0  0  0  0  0  0  0  0  0
   -1.8240  -15.0770    7.2170 C   0  0  0  0  0  0  0  0  0  0  0  0
   -1.1650  -13.8700    7.4310 N   0  0  0  0  0  0  0  0  0  0  0  0
    0.2420  -13.6940    7.3030 C   0  0  0  0  0  0  0  0  0  0  0  0
    1.1230  -14.6730    7.8370 C   0  0  0  0  0  0  0  0  0  0  0  0
    2.5010  -14.4970    7.7090 C   0  0  0  0  0  0  0  0  0  0  0  0
    3.0090  -13.3570    7.0860 C   0  0  0  0  0  0  0  0  0  0  0  0
    2.1370  -12.3910    6.5740 C   0  0  0  0  0  0  0  0  0  0  0  0
    0.7470  -12.5530    6.6690 C   0  0  0  0  0  0  0  0  0  0  0  0
   -3.2410  -14.9470    7.4030 N   0  0  0  0  0  0  0  0  0  0  0  0
   -4.1940  -15.9750    7.2370 C   0  0  0  0  0  0  0  0  0  0  0  0
   -5.4160  -15.8640    7.8660 C   0  0  0  0  0  0  0  0  0  0  0  0
   -3.8790  -17.1190    6.3970 C   0  0  0  0  0  0  0  0  0  0  0  0
   -4.7940  -18.1100    6.2480 C   0  0  0  0  0  0  0  0  0  0  0  0
   -6.0710  -18.0040    6.8800 C   0  0  0  0  0  0  0  0  0  0  0  0
   -6.3840  -16.8900    7.6710 C   0  0  0  0  0  0  0  0  0  0  0  0
   -7.6820  -16.7890    8.2540 C   0  0  0  0  0  0  0  0  0  0  0  0
   -8.5810  -17.7870    8.0620 C   0  0  0  0  0  0  0  0  0  0  0  0
   -7.0280  -19.0220    6.6540 C   0  0  0  0  0  0  0  0  0  0  0  0
   -8.2730  -18.9380    7.2210 C   0  0  0  0  0  0  0  0  0  0  0  0
   -9.3160  -20.0060    6.9270 C   0  0  0  0  0  0  0  0  0  0  0  0
   -8.9200  -21.2520    6.4920 N   0  0  0  0  0  0  0  0  0  0  0  0
  -10.5630  -19.7540    7.1740 N   0  0  0  0  0  0  0  0  0  0  0  0
  2  1  2  0
  3  2  1  0
 10  2  1  0
  4  3  1  0
  5  4  2  0
  9  4  1  0
  6  5  1  0
  7  6  2  0
  8  7  1  0
  9  8  2  0
 11 10  1  0
 12 11  2  0
 13 11  1  0
 16 12  1  0
 14 13  2  0
 15 14  1  0
 16 15  2  0
 19 15  1  0
 17 16  1  0
 18 17  2  0
 20 18  1  0
 20 19  2  0
 21 20  1  0
 22 21  1  0
 23 21  2  0
A    1
O
A    2
C8
A    3
N4
A    4
C9
A    5
C14
A    6
C13
A    7
C12
A    8
C11
A    9
C10
A   10
N3
A   11
C7
A   12
C6
A   13
C15
A   14
C16
A   15
C17
A   16
C5
A   17
C4
A   18
C3
A   19
C18
A   20
C2
A   21
C1
A   22
N2
A   23
N1
M  END
>  <Id>  (50) 
4FUH_1U2_A_301

>  <ChainId>  (50) 
A

>  <AsymId>  (50) 
B

>  <SeqNum>  (50) 
301

>  <Name>  (50) 
6-[(phenylcarbamoyl)amino]naphthalene-2-carboximidamide

>  <SystematicName>  (50) 
1-(6-carbamimidoylnaphthalen-2-yl)-3-phenyl-urea

>  <Synonyms>  (50) 


>  <Type>  (50) 
NON-POLYMER

>  <Formula>  (50) 
C18 H16 N4 O

>  <ObservedFormula>  (50) 
C18 N4 O

>  <MolecularWeight>  (50) 
304.346

>  <ModifiedDate>  (50) 
2012-08-17

>  <Parent>  (50) 


>  <OneLetterCode>  (50) 


>  <SubcomponentList>  (50) 


>  <AmbiguousFlag>  (50) 
N

>  <InsertionCode>  (50) 


>  <InstanceId>  (50) 
4FUH_1U2_A_301

>  <ChemCompId>  (50) 
1U2

>  <PdbId>  (50) 
4FUH

>  <ResidueNumber>  (50) 
301

>  <InChI>  (50) 
InChI=1S/C18H16N4O/c19-17(20)14-7-6-13-11-16(9-8-12(13)10-14)22-18(23)21-15-4-2-1-3-5-15/h1-11H,(H3,19,20)(H2,21,22,23)

>  <InChIKey>  (50) 
JSKAQIFORULOPI-UHFFFAOYSA-N

>  <SMILES>  (50) 
[H]/N=C(/c1ccc2cc(ccc2c1)NC(=O)Nc3ccccc3)\N

>  <MissingHeavyAtoms>  (50) 
0

>  <Model>  (50) 
1

>  <AltIds>  (50) 


>  <pKI>  (50) 
6.2

>  <ChemblID>  (50) 
CHEMBL556663

>  <standardized_canonical_smiles>  (50) 
N=C(N)c1ccc2cc(NC(=O)Nc3ccccc3)ccc2c1

$$$$
4FUJ_1U9_A_301
     RDKit          3D

 24 26  0  0  0  0  0  0  0  0999 V2000
    0.3680   -9.8220    4.4190 O   0  0  0  0  0  0  0  0  0  0  0  0
    1.0130   -9.5030    5.6390 C   0  0  0  0  0  0  0  0  0  0  0  0
    1.4950  -10.8610    6.2590 C   0  0  0  0  0  0  0  0  0  0  0  0
    0.4840  -11.3510    7.2510 C   0  0  0  0  0  0  0  0  0  0  0  0
    0.3490  -10.7050    8.4980 C   0  0  0  0  0  0  0  0  0  0  0  0
   -0.5760  -11.1820    9.4220 C   0  0  0  0  0  0  0  0  0  0  0  0
   -1.3910  -12.2830    9.1120 C   0  0  0  0  0  0  0  0  0  0  0  0
   -0.3300  -12.4780    6.9290 C   0  0  0  0  0  0  0  0  0  0  0  0
   -1.2890  -12.9470    7.8550 C   0  0  0  0  0  0  0  0  0  0  0  0
   -2.2200  -13.9920    7.3920 C   0  0  0  0  0  0  0  0  0  0  0  0
   -3.4180  -14.2810    7.9630 C   0  0  0  0  0  0  0  0  0  0  0  0
   -4.3620  -15.3630    7.5640 C   0  0  0  0  0  0  0  0  0  0  0  0
   -5.5880  -15.4520    8.2110 C   0  0  0  0  0  0  0  0  0  0  0  0
   -3.9920  -16.3890    6.5850 C   0  0  0  0  0  0  0  0  0  0  0  0
   -4.8540  -17.4270    6.3090 C   0  0  0  0  0  0  0  0  0  0  0  0
   -6.1530  -17.4890    6.9660 C   0  0  0  0  0  0  0  0  0  0  0  0
   -6.5130  -16.4770    7.9100 C   0  0  0  0  0  0  0  0  0  0  0  0
   -7.8050  -16.5370    8.5730 C   0  0  0  0  0  0  0  0  0  0  0  0
   -8.6560  -17.5800    8.3250 C   0  0  0  0  0  0  0  0  0  0  0  0
   -7.0660  -18.5490    6.6980 C   0  0  0  0  0  0  0  0  0  0  0  0
   -8.2820  -18.6100    7.3520 C   0  0  0  0  0  0  0  0  0  0  0  0
   -9.2940  -19.6900    7.0180 C   0  0  0  0  0  0  0  0  0  0  0  0
   -8.8730  -20.9590    6.6200 N   0  0  0  0  0  0  0  0  0  0  0  0
  -10.4820  -19.3520    7.1860 N   0  0  0  0  0  0  0  0  0  0  0  0
  2  1  1  0
  3  2  1  0
  4  3  1  0
  5  4  2  0
  8  4  1  0
  6  5  1  0
  7  6  2  0
  9  7  1  0
  9  8  2  0
 10  9  1  0
 11 10  2  0
 12 11  1  0
 13 12  2  0
 14 12  1  0
 17 13  1  0
 15 14  2  0
 16 15  1  0
 17 16  2  0
 20 16  1  0
 18 17  1  0
 19 18  2  0
 21 19  1  0
 21 20  2  0
 22 21  1  0
 23 22  1  0
 24 22  2  0
A    1
O
A    2
C16
A    3
C15
A    4
C14
A    5
C13
A    6
C12
A    7
C11
A    8
C17
A    9
C10
A   10
C9
A   11
C8
A   12
C7
A   13
C6
A   14
C18
A   15
C19
A   16
C20
A   17
C5
A   18
C4
A   19
C3
A   20
C21
A   21
C2
A   22
C1
A   23
N2
A   24
N1
M  END
>  <Id>  (51) 
4FUJ_1U9_A_301

>  <ChainId>  (51) 
A

>  <AsymId>  (51) 
B

>  <SeqNum>  (51) 
301

>  <Name>  (51) 
6-{(E)-2-[3-(2-hydroxyethyl)phenyl]ethenyl}naphthalene-2-carboximidamide

>  <SystematicName>  (51) 
6-[(E)-2-[3-(2-hydroxyethyl)phenyl]ethenyl]naphthalene-2-carboximidamide

>  <Synonyms>  (51) 


>  <Type>  (51) 
NON-POLYMER

>  <Formula>  (51) 
C21 H20 N2 O

>  <ObservedFormula>  (51) 
C21 N2 O

>  <MolecularWeight>  (51) 
316.396

>  <ModifiedDate>  (51) 
2012-08-17

>  <Parent>  (51) 


>  <OneLetterCode>  (51) 


>  <SubcomponentList>  (51) 


>  <AmbiguousFlag>  (51) 
N

>  <InsertionCode>  (51) 


>  <InstanceId>  (51) 
4FUJ_1U9_A_301

>  <ChemCompId>  (51) 
1U9

>  <PdbId>  (51) 
4FUJ

>  <ResidueNumber>  (51) 
301

>  <InChI>  (51) 
InChI=1S/C21H20N2O/c22-21(23)20-9-8-18-13-17(6-7-19(18)14-20)5-4-15-2-1-3-16(12-15)10-11-24/h1-9,12-14,24H,10-11H2,(H3,22,23)/b5-4+

>  <InChIKey>  (51) 
RRGBOWXXLBROIW-SNAWJCMRSA-N

>  <SMILES>  (51) 
[H]/N=C(/c1ccc2cc(ccc2c1)/C=C/c3cccc(c3)CCO)\N

>  <MissingHeavyAtoms>  (51) 
0

>  <Model>  (51) 
1

>  <AltIds>  (51) 


>  <pKI>  (51) 
6.4

>  <ChemblID>  (51) 
CHEMBL551628

>  <standardized_canonical_smiles>  (51) 
N=C(N)c1ccc2cc(/C=C/c3cccc(CCO)c3)ccc2c1

$$$$
4FUF_8UP_A_301
     RDKit          3D

 20 21  0  0  0  0  0  0  0  0999 V2000
   -2.4330  -17.8930    1.7520 Br  0  0  0  0  0  0  0  0  0  0  0  0
   -2.4890  -17.7630    3.7690 C   0  0  0  0  0  0  0  0  0  0  0  0
   -3.2240  -18.9630    4.3310 C   0  0  0  0  0  0  0  0  0  0  0  0
   -3.8050  -18.6820    5.7430 C   0  0  0  0  0  0  0  0  0  0  0  0
   -4.7800  -17.6480    5.5110 O   0  0  0  0  0  0  0  0  0  0  0  0
   -5.1700  -16.9490    6.6130 C   0  0  0  0  0  0  0  0  0  0  0  0
   -4.3590  -15.9310    7.1180 C   0  0  0  0  0  0  0  0  0  0  0  0
   -3.1460  -15.7650    6.4470 O   0  0  0  0  0  0  0  0  0  0  0  0
   -2.0910  -15.0050    7.0560 C   0  0  0  0  0  0  0  0  0  0  0  0
   -6.4500  -17.2380    7.2120 C   0  0  0  0  0  0  0  0  0  0  0  0
   -6.8780  -16.4410    8.3140 C   0  0  0  0  0  0  0  0  0  0  0  0
   -6.0420  -15.4380    8.8220 C   0  0  0  0  0  0  0  0  0  0  0  0
   -4.8150  -15.1690    8.2410 C   0  0  0  0  0  0  0  0  0  0  0  0
   -7.2880  -18.2940    6.7490 C   0  0  0  0  0  0  0  0  0  0  0  0
   -8.4920  -18.5370    7.3670 C   0  0  0  0  0  0  0  0  0  0  0  0
   -9.3780  -19.6790    6.9330 C   0  0  0  0  0  0  0  0  0  0  0  0
   -8.8030  -20.8320    6.4140 N   0  0  0  0  0  0  0  0  0  0  0  0
  -10.6170  -19.4820    7.0860 N   0  0  0  0  0  0  0  0  0  0  0  0
   -8.9490  -17.6940    8.4610 C   0  0  0  0  0  0  0  0  0  0  0  0
   -8.1630  -16.6760    8.9080 C   0  0  0  0  0  0  0  0  0  0  0  0
  2  1  1  0
  3  2  1  0
  4  3  1  0
  5  4  1  0
  6  5  1  0
  7  6  2  0
 10  6  1  0
  8  7  1  0
 13  7  1  0
  9  8  1  0
 11 10  2  0
 14 10  1  0
 12 11  1  0
 20 11  1  0
 13 12  2  0
 15 14  2  0
 16 15  1  0
 19 15  1  0
 17 16  1  0
 18 16  2  0
 20 19  2  0
A    1
BR
A    2
C14
A    3
C13
A    4
C12
A    5
O2
A    6
C11
A    7
C2
A    8
O1
A    9
C1
A   10
C10
A   11
C5
A   12
C4
A   13
C3
A   14
C9
A   15
C8
A   16
C15
A   17
N2
A   18
N1
A   19
C7
A   20
C6
M  END
>  <Id>  (52) 
4FUF_8UP_A_301

>  <ChainId>  (52) 
A

>  <AsymId>  (52) 
B

>  <SeqNum>  (52) 
301

>  <Name>  (52) 
8-(3-bromopropoxy)-7-methoxynaphthalene-2-carboximidamide

>  <SystematicName>  (52) 
8-(3-bromanylpropoxy)-7-methoxy-naphthalene-2-carboximidamide

>  <Synonyms>  (52) 


>  <Type>  (52) 
NON-POLYMER

>  <Formula>  (52) 
C15 H17 Br N2 O2

>  <ObservedFormula>  (52) 
Br C15 N2 O2

>  <MolecularWeight>  (52) 
337.212

>  <ModifiedDate>  (52) 
2012-08-17

>  <Parent>  (52) 


>  <OneLetterCode>  (52) 


>  <SubcomponentList>  (52) 


>  <AmbiguousFlag>  (52) 
N

>  <InsertionCode>  (52) 


>  <InstanceId>  (52) 
4FUF_8UP_A_301

>  <ChemCompId>  (52) 
8UP

>  <PdbId>  (52) 
4FUF

>  <ResidueNumber>  (52) 
301

>  <InChI>  (52) 
InChI=1S/C15H17BrN2O2/c1-19-13-6-5-10-3-4-11(15(17)18)9-12(10)14(13)20-8-2-7-16/h3-6,9H,2,7-8H2,1H3,(H3,17,18)

>  <InChIKey>  (52) 
IQSSJVGPYCFBSQ-UHFFFAOYSA-N

>  <SMILES>  (52) 
[H]/N=C(/c1ccc2ccc(c(c2c1)OCCCBr)OC)\N

>  <MissingHeavyAtoms>  (52) 
0

>  <Model>  (52) 
1

>  <AltIds>  (52) 


>  <pKI>  (52) 
5.2

>  <ChemblID>  (52) 
CHEMBL559698

>  <standardized_canonical_smiles>  (52) 
COc1ccc2ccc(C(=N)N)cc2c1OCCCBr

$$$$
4FUB_4UP_A_301
     RDKit          3D

 22 25  0  0  0  0  0  0  0  0999 V2000
  -10.7300  -19.5640    7.0920 N   0  0  0  0  0  0  0  0  0  0  0  0
   -9.5030  -19.8460    6.8980 C   0  0  0  0  0  0  0  0  0  0  0  0
   -9.0120  -21.0330    6.3670 N   0  0  0  0  0  0  0  0  0  0  0  0
   -8.5070  -18.7570    7.2300 C   0  0  0  0  0  0  0  0  0  0  0  0
   -7.2170  -18.7550    6.6920 C   0  0  0  0  0  0  0  0  0  0  0  0
   -6.3310  -17.6670    6.9790 C   0  0  0  0  0  0  0  0  0  0  0  0
   -6.7860  -16.5850    7.8290 C   0  0  0  0  0  0  0  0  0  0  0  0
   -8.1070  -16.6150    8.3870 C   0  0  0  0  0  0  0  0  0  0  0  0
   -8.9510  -17.6780    8.0980 C   0  0  0  0  0  0  0  0  0  0  0  0
   -4.9910  -17.6510    6.4410 C   0  0  0  0  0  0  0  0  0  0  0  0
   -4.1400  -16.6040    6.7400 C   0  0  0  0  0  0  0  0  0  0  0  0
   -4.5960  -15.5250    7.6090 C   0  0  0  0  0  0  0  0  0  0  0  0
   -5.8940  -15.5100    8.1290 C   0  0  0  0  0  0  0  0  0  0  0  0
   -3.6410  -14.4460    8.0330 C   0  0  0  0  0  0  0  0  0  0  0  0
   -2.2660  -14.8660    8.5280 C   0  0  0  0  0  0  0  0  0  0  0  0
   -2.4660  -14.2590    7.2340 O   0  0  0  0  0  0  0  0  0  0  0  0
   -1.5370  -14.0720    9.5710 C   0  0  0  0  0  0  0  0  0  0  0  0
   -0.8930  -14.7900   10.6140 C   0  0  0  0  0  0  0  0  0  0  0  0
   -0.2320  -14.0880   11.6370 C   0  0  0  0  0  0  0  0  0  0  0  0
   -0.2190  -12.6720   11.6250 C   0  0  0  0  0  0  0  0  0  0  0  0
   -0.8430  -11.9550   10.5850 C   0  0  0  0  0  0  0  0  0  0  0  0
   -1.5010  -12.6500    9.5440 C   0  0  0  0  0  0  0  0  0  0  0  0
  2  1  1  0
  3  2  2  0
  4  2  1  0
  5  4  2  0
  9  4  1  0
  6  5  1  0
  7  6  2  0
 10  6  1  0
  8  7  1  0
 13  7  1  0
  9  8  2  0
 11 10  2  0
 12 11  1  0
 13 12  2  0
 14 12  1  0
 15 14  1  0
 16 14  1  0
 16 15  1  0
 17 15  1  0
 18 17  2  0
 22 17  1  0
 19 18  1  0
 20 19  2  0
 21 20  1  0
 22 21  2  0
A    1
N2
A    2
C1
A    3
N1
A    4
C2
A    5
C11
A    6
C10
A    7
C5
A    8
C4
A    9
C3
A   10
C9
A   11
C8
A   12
C7
A   13
C6
A   14
C12
A   15
C13
A   16
O
A   17
C14
A   18
C19
A   19
C18
A   20
C17
A   21
C16
A   22
C15
M  END
>  <Id>  (53) 
4FUB_4UP_A_301

>  <ChainId>  (53) 
A

>  <AsymId>  (53) 
B

>  <SeqNum>  (53) 
301

>  <Name>  (53) 
6-[(2S,3S)-3-phenyloxiran-2-yl]naphthalene-2-carboximidamide

>  <SystematicName>  (53) 
6-[(2S,3S)-3-phenyloxiran-2-yl]naphthalene-2-carboximidamide

>  <Synonyms>  (53) 


>  <Type>  (53) 
NON-POLYMER

>  <Formula>  (53) 
C19 H16 N2 O

>  <ObservedFormula>  (53) 
C19 N2 O

>  <MolecularWeight>  (53) 
288.343

>  <ModifiedDate>  (53) 
2012-08-17

>  <Parent>  (53) 


>  <OneLetterCode>  (53) 


>  <SubcomponentList>  (53) 


>  <AmbiguousFlag>  (53) 
N

>  <InsertionCode>  (53) 


>  <InstanceId>  (53) 
4FUB_4UP_A_301

>  <ChemCompId>  (53) 
4UP

>  <PdbId>  (53) 
4FUB

>  <ResidueNumber>  (53) 
301

>  <InChI>  (53) 
InChI=1S/C19H16N2O/c20-19(21)16-9-7-13-10-15(8-6-14(13)11-16)18-17(22-18)12-4-2-1-3-5-12/h1-11,17-18H,(H3,20,21)/t17-,18-/m0/s1

>  <InChIKey>  (53) 
RZYGGGSOUBZFKW-ROUUACIJSA-N

>  <SMILES>  (53) 
[H]/N=C(/c1ccc2cc(ccc2c1)[C@H]3[C@@H](O3)c4ccccc4)\N

>  <MissingHeavyAtoms>  (53) 
0

>  <Model>  (53) 
1

>  <AltIds>  (53) 


>  <pKI>  (53) 
6.2

>  <ChemblID>  (53) 
CHEMBL563776

>  <standardized_canonical_smiles>  (53) 
N=C(N)c1ccc2cc(C3OC3c3ccccc3)ccc2c1

$$$$
4FUG_9UP_A_301
     RDKit          3D

 18 19  0  0  0  0  0  0  0  0999 V2000
  -24.2190  -19.9870   -2.5970 C   0  0  0  0  0  0  0  0  0  0  0  0
  -24.0900  -19.9160   -4.0200 O   0  0  0  0  0  0  0  0  0  0  0  0
  -23.6230  -18.7290   -4.5310 C   0  0  0  0  0  0  0  0  0  0  0  0
  -23.7000  -17.7130   -3.8280 O   0  0  0  0  0  0  0  0  0  0  0  0
  -23.0660  -18.7680   -5.7580 N   0  0  0  0  0  0  0  0  0  0  0  0
  -22.5830  -17.7010   -6.4380 C   0  0  0  0  0  0  0  0  0  0  0  0
  -21.2600  -17.6800   -6.9340 C   0  0  0  0  0  0  0  0  0  0  0  0
  -20.3850  -18.7510   -6.6880 C   0  0  0  0  0  0  0  0  0  0  0  0
  -23.4450  -16.6380   -6.7520 C   0  0  0  0  0  0  0  0  0  0  0  0
  -23.0000  -15.5540   -7.5310 C   0  0  0  0  0  0  0  0  0  0  0  0
  -21.7030  -15.5610   -8.0640 C   0  0  0  0  0  0  0  0  0  0  0  0
  -20.8220  -16.6000   -7.7380 C   0  0  0  0  0  0  0  0  0  0  0  0
  -19.5230  -16.6080   -8.2790 C   0  0  0  0  0  0  0  0  0  0  0  0
  -18.6480  -17.6560   -7.9830 C   0  0  0  0  0  0  0  0  0  0  0  0
  -19.0680  -18.7400   -7.1850 C   0  0  0  0  0  0  0  0  0  0  0  0
  -18.1610  -19.7610   -6.8400 C   0  0  0  0  0  0  0  0  0  0  0  0
  -18.5400  -20.9460   -6.3370 N   0  0  0  0  0  0  0  0  0  0  0  0
  -16.8610  -19.5560   -6.9640 N   0  0  0  0  0  0  0  0  0  0  0  0
  2  1  1  0
  3  2  1  0
  4  3  2  0
  5  3  1  0
  6  5  1  0
  7  6  2  0
  9  6  1  0
  8  7  1  0
 12  7  1  0
 15  8  2  0
 10  9  2  0
 11 10  1  0
 12 11  2  0
 13 12  1  0
 14 13  2  0
 15 14  1  0
 16 15  1  0
 17 16  1  0
 18 16  2  0
A    1
CAA
A    2
OAL
A    3
CAN
A    4
OAD
A    5
N1
A    6
CAP
A    7
CAR
A    8
CAJ
A    9
CAF
A   10
CAE
A   11
CAH
A   12
CAQ
A   13
CAI
A   14
CAG
A   15
CAO
A   16
CAM
A   17
N2
A   18
N3
M  END
>  <Id>  (54) 
4FUG_9UP_A_301

>  <ChainId>  (54) 
A

>  <AsymId>  (54) 
B

>  <SeqNum>  (54) 
301

>  <Name>  (54) 
methyl (7-carbamimidoylnaphthalen-1-yl)carbamate

>  <SystematicName>  (54) 
methyl N-(7-carbamimidoylnaphthalen-1-yl)carbamate

>  <Synonyms>  (54) 


>  <Type>  (54) 
NON-POLYMER

>  <Formula>  (54) 
C13 H13 N3 O2

>  <ObservedFormula>  (54) 
C13 N3 O2

>  <MolecularWeight>  (54) 
243.261

>  <ModifiedDate>  (54) 
2012-08-17

>  <Parent>  (54) 


>  <OneLetterCode>  (54) 


>  <SubcomponentList>  (54) 


>  <AmbiguousFlag>  (54) 
N

>  <InsertionCode>  (54) 


>  <InstanceId>  (54) 
4FUG_9UP_A_301

>  <ChemCompId>  (54) 
9UP

>  <PdbId>  (54) 
4FUG

>  <ResidueNumber>  (54) 
301

>  <InChI>  (54) 
InChI=1S/C13H13N3O2/c1-18-13(17)16-11-4-2-3-8-5-6-9(12(14)15)7-10(8)11/h2-7H,1H3,(H3,14,15)(H,16,17)

>  <InChIKey>  (54) 
QRWVPIXNCDJOGY-UHFFFAOYSA-N

>  <SMILES>  (54) 
[H]/N=C(\c1ccc2cccc(c2c1)NC(=O)OC)/N

>  <MissingHeavyAtoms>  (54) 
0

>  <Model>  (54) 
1

>  <AltIds>  (54) 


>  <pKI>  (54) 
7.4

>  <ChemblID>  (54) 
CHEMBL555026

>  <standardized_canonical_smiles>  (54) 
COC(=O)Nc1cccc2ccc(C(=N)N)cc12

$$$$
1W10_SJ1_U_1245
     RDKit          3D

 29 28  0  0  0  0  0  0  0  0999 V2000
   34.0800    4.8240   27.4120 N   0  0  0  0  0  0  0  0  0  0  0  0
   32.8460    4.4350   27.7720 C   0  0  0  0  0  0  0  0  0  0  0  0
   32.6280    3.1070   27.9330 N   0  0  0  0  0  0  0  0  0  0  0  0
   31.9280    5.3870   27.9520 N   0  0  0  0  0  0  0  0  0  0  0  0
   30.6340    5.0910   28.3970 C   0  0  0  0  0  0  0  0  0  0  0  0
   29.8170    6.4040   28.3990 C   0  0  0  0  0  0  0  0  0  0  0  0
   28.3350    6.1510   28.7610 C   0  0  0  0  0  0  0  0  0  0  0  0
   27.6410    7.5130   28.9680 C   0  0  0  0  0  0  0  0  0  0  0  0
   26.1840    7.4370   29.0710 C   0  0  0  0  0  0  0  0  0  0  0  0
   25.4310    8.3590   29.4320 O   0  0  0  0  0  0  0  0  0  0  0  0
   28.1330    8.1590   30.1550 N   0  0  0  0  0  0  0  0  0  0  0  0
   28.4260    9.4420   30.1350 C   0  0  0  0  0  0  0  0  0  0  0  0
   28.3660   10.1580   29.1010 O   0  0  0  0  0  0  0  0  0  0  0  0
   28.8520   10.0870   31.3850 C   0  0  0  0  0  0  0  0  0  0  0  0
   27.6270   10.8700   31.9120 C   0  0  0  0  0  0  0  0  0  0  0  0
   29.8930   11.0170   31.1460 N   0  0  0  0  0  0  0  0  0  0  0  0
   31.1120   10.7280   30.7190 C   0  0  0  0  0  0  0  0  0  0  0  0
   31.4080    9.5520   30.4560 O   0  0  0  0  0  0  0  0  0  0  0  0
   32.1030   11.7930   30.5570 C   0  0  0  0  0  0  0  0  0  0  0  0
   32.8280   12.1470   31.8800 C   0  0  0  0  0  0  0  0  0  0  0  0
   33.4680   10.9340   32.3030 O   0  0  0  0  0  0  0  0  0  0  0  0
   33.0810   11.3930   29.6090 N   0  0  0  0  0  0  0  0  0  0  0  0
   33.1830   11.8550   28.3880 C   0  0  0  0  0  0  0  0  0  0  0  0
   34.1030   11.4360   27.6680 O   0  0  0  0  0  0  0  0  0  0  0  0
   32.3870   12.7000   27.9110 O   0  0  0  0  0  0  0  0  0  0  0  0
   32.5690   13.7200   27.0490 C   0  0  0  0  0  0  0  0  0  0  0  0
   31.4140   13.7480   26.0070 C   0  0  0  0  0  0  0  0  0  0  0  0
   31.8850   12.8950   24.7950 C   0  0  0  0  0  0  0  0  0  0  0  0
   31.1320   15.1910   25.5150 C   0  0  0  0  0  0  0  0  0  0  0  0
  2  1  2  0
  3  2  1  0
  4  2  1  0
  5  4  1  0
  6  5  1  0
  7  6  1  0
  8  7  1  0
  9  8  1  0
 11  8  1  0
 10  9  2  0
 12 11  1  0
 13 12  2  0
 14 12  1  0
 15 14  1  0
 16 14  1  0
 17 16  1  0
 18 17  2  0
 19 17  1  0
 20 19  1  0
 22 19  1  0
 21 20  1  0
 23 22  1  0
 24 23  2  0
 25 23  1  0
 26 25  1  0
 27 26  1  0
 28 27  1  0
 29 27  1  0
A    1
N1
A    2
C2
A    3
N2
A    4
N3
A    5
C3
A    6
C4
A    7
C5
A    8
C6
A    9
C7
A   10
O1
A   11
N4
A   12
C8
A   13
O2
A   14
C9
A   15
C10
A   16
N5
A   17
C11
A   18
O3
A   19
C12
A   20
C13
A   21
O4
A   22
N6
A   23
C14
A   24
O5
A   25
O6
A   26
C15
A   27
C16
A   28
C17
A   29
C18
M  END
>  <Id>  (55) 
1W10_SJ1_U_1245

>  <ChainId>  (55) 
U

>  <AsymId>  (55) 
B

>  <SeqNum>  (55) 
1245

>  <Name>  (55) 
N-(ISOBUTOXYCARBONYL)-D-SERYL-N-((1S)-4-{[AMINO(IMINO)METHYL]AMINO}-1-FORMYLBUTYL)-L-ALANINAMIDE

>  <SystematicName>  (55) 
2-methylpropyl N-[(2R)-1-[[(2S)-1-[[(2S)-5-carbamimidamido-1-oxo-pentan-2-yl]amino]-1-oxo-propan-2-yl]amino]-3-hydroxy-1-oxo-propan-2-yl]carbamate

>  <Synonyms>  (55) 


>  <Type>  (55) 
NON-POLYMER

>  <Formula>  (55) 
C17 H32 N6 O6

>  <ObservedFormula>  (55) 
C17 N6 O6

>  <MolecularWeight>  (55) 
416.473

>  <ModifiedDate>  (55) 
2011-06-04

>  <Parent>  (55) 


>  <OneLetterCode>  (55) 


>  <SubcomponentList>  (55) 


>  <AmbiguousFlag>  (55) 
N

>  <InsertionCode>  (55) 


>  <InstanceId>  (55) 
1W10_SJ1_U_1245

>  <ChemCompId>  (55) 
SJ1

>  <PdbId>  (55) 
1W10

>  <ResidueNumber>  (55) 
1245

>  <InChI>  (55) 
InChI=1S/C17H32N6O6/c1-10(2)9-29-17(28)23-13(8-25)15(27)21-11(3)14(26)22-12(7-24)5-4-6-20-16(18)19/h7,10-13,25H,4-6,8-9H2,1-3H3,(H,21,27)(H,22,26)(H,23,28)(H4,18,19,20)/t11-,12-,13+/m0/s1

>  <InChIKey>  (55) 
SKCVKPRTPPHGAU-RWMBFGLXSA-N

>  <SMILES>  (55) 
[H]/N=C(\N)/NCCC[C@@H](C=O)NC(=O)[C@H](C)NC(=O)[C@@H](CO)NC(=O)OCC(C)C

>  <MissingHeavyAtoms>  (55) 
0

>  <Model>  (55) 
1

>  <AltIds>  (55) 


>  <pKI>  (55) 
7.55

>  <ChemblID>  (55) 
-

>  <standardized_canonical_smiles>  (55) 
CC(C)COC(=O)N[C@H](CO)C(=O)N[C@@H](C)C(=O)N[C@H](C=O)CCCNC(=N)N

$$$$
1W0Z_SI1_U_1245
     RDKit          3D

 29 29  0  0  0  0  0  0  0  0999 V2000
   34.3950    4.7700   27.3880 N   0  0  0  0  0  0  0  0  0  0  0  0
   33.1770    2.9530   27.8990 N   0  0  0  0  0  0  0  0  0  0  0  0
   33.1870    4.2980   27.7840 C   0  0  0  0  0  0  0  0  0  0  0  0
   32.0490    5.0940   28.0620 C   0  0  0  0  0  0  0  0  0  0  0  0
   32.0740    6.4990   27.8890 C   0  0  0  0  0  0  0  0  0  0  0  0
   30.9720    7.3020   28.2420 C   0  0  0  0  0  0  0  0  0  0  0  0
   29.7680    6.7210   28.6810 C   0  0  0  0  0  0  0  0  0  0  0  0
   29.7170    5.3210   28.8170 C   0  0  0  0  0  0  0  0  0  0  0  0
   30.8440    4.5270   28.5260 C   0  0  0  0  0  0  0  0  0  0  0  0
   28.5850    7.5630   28.9930 C   0  0  0  0  0  0  0  0  0  0  0  0
   28.7810    8.3350   30.1590 N   0  0  0  0  0  0  0  0  0  0  0  0
   29.0710    9.6110   30.1330 C   0  0  0  0  0  0  0  0  0  0  0  0
   29.2390   10.2050   29.0590 O   0  0  0  0  0  0  0  0  0  0  0  0
   29.2050   10.3700   31.3810 C   0  0  0  0  0  0  0  0  0  0  0  0
   30.3020   11.2630   31.3040 N   0  0  0  0  0  0  0  0  0  0  0  0
   31.5700   10.9280   31.1760 C   0  0  0  0  0  0  0  0  0  0  0  0
   31.8750    9.7340   31.0790 O   0  0  0  0  0  0  0  0  0  0  0  0
   32.6660   11.9060   31.1340 C   0  0  0  0  0  0  0  0  0  0  0  0
   33.4010   12.1040   32.4900 C   0  0  0  0  0  0  0  0  0  0  0  0
   32.4930   12.1230   33.5950 O   0  0  0  0  0  0  0  0  0  0  0  0
   33.7980   11.5600   30.2380 N   0  0  0  0  0  0  0  0  0  0  0  0
   33.7560   12.1400   28.6580 S   0  0  0  0  0  0  0  0  0  0  0  0
   33.3650   13.6380   28.6020 O   0  0  0  0  0  0  0  0  0  0  0  0
   35.1840   11.8500   28.1110 O   0  0  0  0  0  0  0  0  0  0  0  0
   32.6150   11.1430   27.7700 C   0  0  0  0  0  0  0  0  0  0  0  0
   32.4750   11.4000   26.2510 C   0  0  0  0  0  0  0  0  0  0  0  0
   31.4570   10.3930   25.6520 C   0  0  0  0  0  0  0  0  0  0  0  0
   31.3430   10.6000   24.1210 C   0  0  0  0  0  0  0  0  0  0  0  0
   27.9160   11.1980   31.6240 C   0  0  0  0  0  0  0  0  0  0  0  0
  3  1  1  0
  3  2  2  0
  4  3  1  0
  5  4  2  0
  9  4  1  0
  6  5  1  0
  7  6  2  0
  8  7  1  0
 10  7  1  0
  9  8  2  0
 11 10  1  0
 12 11  1  0
 13 12  2  0
 14 12  1  0
 15 14  1  0
 29 14  1  0
 16 15  1  0
 17 16  2  0
 18 16  1  0
 19 18  1  0
 21 18  1  0
 20 19  1  0
 22 21  1  0
 23 22  2  0
 24 22  2  0
 25 22  1  0
 26 25  1  0
 27 26  1  0
 28 27  1  0
A    1
N4
A    2
N5
A    3
C18
A    4
C14
A    5
C13
A    6
C12
A    7
C17
A    8
C16
A    9
C15
A   10
C11
A   11
N3
A   12
C10
A   13
O5
A   14
C8
A   15
N2
A   16
C7
A   17
O4
A   18
C5
A   19
C6
A   20
O3
A   21
N1
A   22
S1
A   23
O2
A   24
O1
A   25
C1
A   26
C4
A   27
C3
A   28
C2
A   29
C9
M  END
>  <Id>  (56) 
1W0Z_SI1_U_1245

>  <ChainId>  (56) 
U

>  <AsymId>  (56) 
B

>  <SeqNum>  (56) 
1245

>  <Name>  (56) 
N-(BUTYLSULFONYL)-D-SERYL-N-{4-[AMINO(IMINO)METHYL]BENZYL}-L-ALANINAMIDE

>  <SystematicName>  (56) 
(2S)-2-[[(2R)-2-(butylsulfonylamino)-3-hydroxy-propanoyl]amino]-N-[(4-carbamimidoylphenyl)methyl]propanamide

>  <Synonyms>  (56) 


>  <Type>  (56) 
NON-POLYMER

>  <Formula>  (56) 
C18 H29 N5 O5 S

>  <ObservedFormula>  (56) 
C18 S N5 O5

>  <MolecularWeight>  (56) 
427.518

>  <ModifiedDate>  (56) 
2011-06-04

>  <Parent>  (56) 


>  <OneLetterCode>  (56) 


>  <SubcomponentList>  (56) 


>  <AmbiguousFlag>  (56) 
N

>  <InsertionCode>  (56) 


>  <InstanceId>  (56) 
1W0Z_SI1_U_1245

>  <ChemCompId>  (56) 
SI1

>  <PdbId>  (56) 
1W0Z

>  <ResidueNumber>  (56) 
1245

>  <InChI>  (56) 
InChI=1S/C18H29N5O5S/c1-3-4-9-29(27,28)23-15(11-24)18(26)22-12(2)17(25)21-10-13-5-7-14(8-6-13)16(19)20/h5-8,12,15,23-24H,3-4,9-11H2,1-2H3,(H3,19,20)(H,21,25)(H,22,26)/t12-,15+/m0/s1

>  <InChIKey>  (56) 
GDNHYCQJIXDFDC-SWLSCSKDSA-N

>  <SMILES>  (56) 
[H]/N=C(\c1ccc(cc1)CNC(=O)[C@H](C)NC(=O)[C@@H](CO)NS(=O)(=O)CCCC)/N

>  <MissingHeavyAtoms>  (56) 
0

>  <Model>  (56) 
1

>  <AltIds>  (56) 


>  <pKI>  (56) 
7.68

>  <ChemblID>  (56) 
-

>  <standardized_canonical_smiles>  (56) 
CCCCS(=O)(=O)N[C@H](CO)C(=O)N[C@@H](C)C(=O)NCc1ccc(C(=N)N)cc1

$$$$
1W14_SH1_U_1300
     RDKit          3D

 33 33  0  0  0  0  0  0  0  0999 V2000
   32.7040   12.0000   27.3830 C   0  0  0  0  0  0  0  0  0  0  0  0
   32.7350   12.9370   26.1960 C   0  0  0  0  0  0  0  0  0  0  0  0
   33.6190   12.4380   25.0570 C   0  0  0  0  0  0  0  0  0  0  0  0
   33.2190   11.3510   24.2740 C   0  0  0  0  0  0  0  0  0  0  0  0
   34.8320   13.0800   24.7990 C   0  0  0  0  0  0  0  0  0  0  0  0
   33.9910   10.9560   23.1850 C   0  0  0  0  0  0  0  0  0  0  0  0
   35.5850   12.6790   23.7080 C   0  0  0  0  0  0  0  0  0  0  0  0
   35.1660   11.6370   22.8950 C   0  0  0  0  0  0  0  0  0  0  0  0
   33.9890   12.3310   28.5990 S   0  0  0  0  0  0  0  0  0  0  0  0
   35.6470   11.8470   28.2450 O   0  0  0  0  0  0  0  0  0  0  0  0
   34.0560   14.0560   28.9730 O   0  0  0  0  0  0  0  0  0  0  0  0
   33.5470   11.4050   30.0130 N   0  0  0  0  0  0  0  0  0  0  0  0
   32.4610   11.9220   30.7860 C   0  0  0  0  0  0  0  0  0  0  0  0
   33.1480   12.2830   32.0940 C   0  0  0  0  0  0  0  0  0  0  0  0
   33.8480   11.1250   32.5350 O   0  0  0  0  0  0  0  0  0  0  0  0
   31.4270   10.8060   30.8860 C   0  0  0  0  0  0  0  0  0  0  0  0
   31.7310    9.6360   30.5900 O   0  0  0  0  0  0  0  0  0  0  0  0
   30.2100   11.1610   31.3020 N   0  0  0  0  0  0  0  0  0  0  0  0
   29.1480   10.2120   31.4990 C   0  0  0  0  0  0  0  0  0  0  0  0
   27.9950   10.9430   32.1380 C   0  0  0  0  0  0  0  0  0  0  0  0
   28.7610    9.5930   30.1500 C   0  0  0  0  0  0  0  0  0  0  0  0
   28.7030   10.2590   29.0860 O   0  0  0  0  0  0  0  0  0  0  0  0
   28.5020    8.2860   30.2400 N   0  0  0  0  0  0  0  0  0  0  0  0
   28.0250    7.5620   29.0730 C   0  0  0  0  0  0  0  0  0  0  0  0
   28.7440    6.2450   28.8480 C   0  0  0  0  0  0  0  0  0  0  0  0
   30.2290    6.4680   28.6670 C   0  0  0  0  0  0  0  0  0  0  0  0
   30.8540    5.1510   28.3070 C   0  0  0  0  0  0  0  0  0  0  0  0
   32.2470    5.4100   28.0420 N   0  0  0  0  0  0  0  0  0  0  0  0
   33.1520    4.4440   27.8860 C   0  0  0  0  0  0  0  0  0  0  0  0
   32.8260    3.1440   27.9710 N   0  0  0  0  0  0  0  0  0  0  0  0
   34.4110    4.8090   27.6420 N   0  0  0  0  0  0  0  0  0  0  0  0
   26.5090    7.3490   29.1840 C   0  0  0  0  0  0  0  0  0  0  0  0
   25.8170    8.5400   29.5650 O   0  0  0  0  0  0  0  0  0  0  0  0
  2  1  1  0
  9  1  1  0
  3  2  1  0
  4  3  2  0
  5  3  1  0
  6  4  1  0
  7  5  2  0
  8  6  2  0
  8  7  1  0
 10  9  2  0
 11  9  2  0
 12  9  1  0
 13 12  1  0
 14 13  1  0
 16 13  1  0
 15 14  1  0
 17 16  2  0
 18 16  1  0
 19 18  1  0
 20 19  1  0
 21 19  1  0
 22 21  2  0
 23 21  1  0
 24 23  1  0
 25 24  1  0
 32 24  1  0
 26 25  1  0
 27 26  1  0
 28 27  1  0
 29 28  2  3
 30 29  1  0
 31 29  1  0
 33 32  1  0
A    1
C1
A    2
C2
A    3
C3
A    4
C4
A    5
C5
A    6
C6
A    7
C7
A    8
C8
A    9
S1
A   10
O1
A   11
O2
A   12
N1
A   13
C9
A   14
C10
A   15
O3
A   16
C11
A   17
O4
A   18
N2
A   19
C12
A   20
C13
A   21
C14
A   22
O5
A   23
N3
A   24
C15
A   25
C16
A   26
C17
A   27
C18
A   28
N4
A   29
C19
A   30
N5
A   31
N6
A   32
C20
A   33
O6
M  END
>  <Id>  (57) 
1W14_SH1_U_1300

>  <ChainId>  (57) 
U

>  <AsymId>  (57) 
D

>  <SeqNum>  (57) 
1300

>  <Name>  (57) 
N-[(2-PHENYLETHYL)SULFONYL]-D-SERYL-N-[(1S)-4-[(DIAMINOMETHYLENE)AMINO]-1-(HYDROXYMETHYL)BUTYL]-L-ALANINAMIDE

>  <SystematicName>  (57) 
(2R)-N-[(2S)-1-[[(2S)-5-(diaminomethylideneamino)-1-hydroxy-pentan-2-yl]amino]-1-oxo-propan-2-yl]-3-hydroxy-2-(phenethylsulfonylamino)propanamide

>  <Synonyms>  (57) 


>  <Type>  (57) 
NON-POLYMER

>  <Formula>  (57) 
C20 H34 N6 O6 S

>  <ObservedFormula>  (57) 
C20 S N6 O6

>  <MolecularWeight>  (57) 
486.586

>  <ModifiedDate>  (57) 
2011-06-04

>  <Parent>  (57) 


>  <OneLetterCode>  (57) 


>  <SubcomponentList>  (57) 


>  <AmbiguousFlag>  (57) 
N

>  <InsertionCode>  (57) 


>  <InstanceId>  (57) 
1W14_SH1_U_1300

>  <ChemCompId>  (57) 
SH1

>  <PdbId>  (57) 
1W14

>  <ResidueNumber>  (57) 
1300

>  <InChI>  (57) 
InChI=1S/C20H34N6O6S/c1-14(18(29)25-16(12-27)8-5-10-23-20(21)22)24-19(30)17(13-28)26-33(31,32)11-9-15-6-3-2-4-7-15/h2-4,6-7,14,16-17,26-28H,5,8-13H2,1H3,(H,24,30)(H,25,29)(H4,21,22,23)/t14-,16-,17+/m0/s1

>  <InChIKey>  (57) 
RWZMJXITHWDHNE-BHYGNILZSA-N

>  <SMILES>  (57) 
C[C@@H](C(=O)N[C@@H](CCCN=C(N)N)CO)NC(=O)[C@@H](CO)NS(=O)(=O)CCc1ccccc1

>  <MissingHeavyAtoms>  (57) 
0

>  <Model>  (57) 
1

>  <AltIds>  (57) 


>  <pKI>  (57) 
8.52

>  <ChemblID>  (57) 
-

>  <standardized_canonical_smiles>  (57) 
C[C@H](NC(=O)[C@@H](CO)NS(=O)(=O)CCc1ccccc1)C(=O)N[C@H](CO)CCCN=C(N)N

$$$$
3KID_2BS_U_1
     RDKit          3D

 15 16  0  0  0  0  0  0  0  0999 V2000
   -0.6840  -30.6190  -12.3300 C   0  0  0  0  0  0  0  0  0  0  0  0
   -0.8810  -34.3990   -8.7520 S   0  0  0  0  0  0  0  0  0  0  0  0
   -0.1700  -28.9330  -10.5130 C   0  0  0  0  0  0  0  0  0  0  0  0
   -0.9760  -36.1120  -10.7520 N   0  0  0  0  0  0  0  0  0  0  0  0
   -1.1110  -29.6180  -11.3350 O   0  0  0  0  0  0  0  0  0  0  0  0
   -0.7250  -28.8460   -9.1220 C   0  0  0  0  0  0  0  0  0  0  0  0
   -0.7650  -32.0800  -11.9900 C   0  0  0  0  0  0  0  0  0  0  0  0
   -0.7800  -32.4530  -10.6270 C   0  0  0  0  0  0  0  0  0  0  0  0
   -0.8550  -33.8050  -10.3000 C   0  0  0  0  0  0  0  0  0  0  0  0
   -0.9620  -36.0120   -9.3870 C   0  0  0  0  0  0  0  0  0  0  0  0
   -0.9150  -34.8820  -11.3580 C   0  0  0  0  0  0  0  0  0  0  0  0
   -0.9000  -34.4690  -12.7180 C   0  0  0  0  0  0  0  0  0  0  0  0
   -0.2760  -30.2490  -13.4280 O   0  0  0  0  0  0  0  0  0  0  0  0
   -1.0030  -37.1030   -8.5830 N   0  0  0  0  0  0  0  0  0  0  0  0
   -0.8260  -33.0750  -13.0260 C   0  0  0  0  0  0  0  0  0  0  0  0
  5  1  1  0
  7  1  1  0
 13  1  2  0
  9  2  1  0
 10  2  1  0
  5  3  1  0
  6  3  1  0
 10  4  2  0
 11  4  1  0
  8  7  1  0
 15  7  2  0
  9  8  2  0
 11  9  1  0
 14 10  1  0
 12 11  2  0
 15 12  1  0
A    1
C1
A    2
S1
A    3
C2
A    4
N2
A    5
O2
A    6
C3
A    7
C4
A    8
C5
A    9
C6
A   10
C7
A   11
C8
A   12
C9
A   13
O01
A   14
N02
A   15
C10
M  END
>  <Id>  (58) 
3KID_2BS_U_1

>  <ChainId>  (58) 
U

>  <AsymId>  (58) 
B

>  <SeqNum>  (58) 
1

>  <Name>  (58) 
ethyl 2-amino-1,3-benzothiazole-6-carboxylate

>  <SystematicName>  (58) 
ethyl 2-azanyl-1,3-benzothiazole-6-carboxylate

>  <Synonyms>  (58) 
2-amino-benzothiazole-6-carboxylic acid ethyl ester

>  <Type>  (58) 
NON-POLYMER

>  <Formula>  (58) 
C10 H10 N2 O2 S

>  <ObservedFormula>  (58) 
C10 S N2 O2

>  <MolecularWeight>  (58) 
222.264

>  <ModifiedDate>  (58) 
2011-06-04

>  <Parent>  (58) 


>  <OneLetterCode>  (58) 


>  <SubcomponentList>  (58) 


>  <AmbiguousFlag>  (58) 
N

>  <InsertionCode>  (58) 


>  <InstanceId>  (58) 
3KID_2BS_U_1

>  <ChemCompId>  (58) 
2BS

>  <PdbId>  (58) 
3KID

>  <ResidueNumber>  (58) 
1

>  <InChI>  (58) 
InChI=1S/C10H10N2O2S/c1-2-14-9(13)6-3-4-7-8(5-6)15-10(11)12-7/h3-5H,2H2,1H3,(H2,11,12)

>  <InChIKey>  (58) 
VYJSGJXWKSDUSG-UHFFFAOYSA-N

>  <SMILES>  (58) 
CCOC(=O)c1ccc2c(c1)sc(n2)N

>  <MissingHeavyAtoms>  (58) 
0

>  <Model>  (58) 
1

>  <AltIds>  (58) 


>  <pKI>  (58) 
3.18

>  <ChemblID>  (58) 
-

>  <standardized_canonical_smiles>  (58) 
CCOC(=O)c1ccc2nc(N)sc2c1

$$$$
5ZA8_27I_U_301
     RDKit          3D

 26 28  0  0  0  0  0  0  0  0999 V2000
  -26.3220  -17.6460    2.0930 N   0  0  0  0  0  0  0  0  0  0  0  0
  -30.3850  -18.8650   -4.7030 O   0  0  0  0  0  0  0  0  0  0  0  0
  -30.1710  -18.7470   -3.5100 C   0  0  0  0  0  0  0  0  0  0  0  0
  -30.8710  -19.3630   -2.5440 N   0  0  0  0  0  0  0  0  0  0  0  0
  -31.8660  -20.2300   -2.7050 C   0  0  0  0  0  0  0  0  0  0  0  0
  -32.4550  -20.7290   -1.6240 N   0  0  0  0  0  0  0  0  0  0  0  0
  -32.2970  -20.5860   -3.9050 N   0  0  0  0  0  0  0  0  0  0  0  0
  -29.0820  -17.8260   -3.0550 C   0  0  0  0  0  0  0  0  0  0  0  0
  -28.5980  -17.9770   -1.7930 N   0  0  0  0  0  0  0  0  0  0  0  0
  -28.5460  -16.8390   -3.8660 C   0  0  0  0  0  0  0  0  0  0  0  0
  -28.9780  -16.6200   -5.1360 N   0  0  0  0  0  0  0  0  0  0  0  0
  -27.5690  -16.0540   -3.3550 N   0  0  0  0  0  0  0  0  0  0  0  0
  -27.0800  -16.2040   -2.0920 C   0  0  0  0  0  0  0  0  0  0  0  0
  -27.6090  -17.2050   -1.2570 C   0  0  0  0  0  0  0  0  0  0  0  0
  -27.2260  -17.5180    0.0800 C   0  0  0  0  0  0  0  0  0  0  0  0
  -27.8130  -18.5390    0.8220 C   0  0  0  0  0  0  0  0  0  0  0  0
  -27.2750  -18.6460    2.0550 N   0  0  0  0  0  0  0  0  0  0  0  0
  -25.5780  -17.5250    3.3740 C   0  0  0  0  0  0  0  0  0  0  0  0
  -26.2740  -16.9800    0.9440 C   0  0  0  0  0  0  0  0  0  0  0  0
  -26.1100  -15.2640   -1.7160 N   0  0  0  0  0  0  0  0  0  0  0  0
  -26.4480  -14.3360   -0.6140 C   0  0  0  0  0  0  0  0  0  0  0  0
  -26.7150  -12.9170   -1.0970 C   0  0  0  0  0  0  0  0  0  0  0  0
  -25.4160  -12.1120   -1.1440 C   0  0  0  0  0  0  0  0  0  0  0  0
  -24.3250  -12.6710   -2.0670 C   0  0  0  0  0  0  0  0  0  0  0  0
  -24.7550  -13.7680   -3.0560 C   0  0  0  0  0  0  0  0  0  0  0  0
  -24.8370  -15.1430   -2.4030 C   0  0  0  0  0  0  0  0  0  0  0  0
 17  1  1  0
 18  1  1  0
 19  1  1  0
  3  2  2  0
  4  3  1  0
  8  3  1  0
  5  4  1  0
  6  5  1  0
  7  5  2  0
  9  8  2  0
 10  8  1  0
 14  9  1  0
 11 10  1  0
 12 10  2  0
 13 12  1  0
 14 13  2  0
 20 13  1  0
 15 14  1  0
 16 15  1  0
 19 15  2  0
 17 16  2  0
 21 20  1  0
 26 20  1  0
 22 21  1  0
 23 22  1  0
 24 23  1  0
 25 24  1  0
 26 25  1  0
A    1
N1
A    2
O1
A    3
C9
A    4
N7
A    5
C10
A    6
N9
A    7
N8
A    8
C6
A    9
N3
A   10
C7
A   11
N6
A   12
N4
A   13
C8
A   14
C5
A   15
C3
A   16
C2
A   17
N2
A   18
C4
A   19
C1
A   20
N5
A   21
C16
A   22
C15
A   23
C14
A   24
C13
A   25
C12
A   26
C11
M  END
>  <Id>  (59) 
5ZA8_27I_U_301

>  <ChainId>  (59) 
U

>  <AsymId>  (59) 
B

>  <SeqNum>  (59) 
301

>  <Name>  (59) 
3-azanyl-5-(azepan-1-yl)-N-carbamimidoyl-6-(1-methylpyrazol-4-yl)pyrazine-2-carboxamide

>  <SystematicName>  (59) 
3-azanyl-5-(azepan-1-yl)-~{N}-carbamimidoyl-6-(1-methylpyrazol-4-yl)pyrazine-2-carboxamide

>  <Synonyms>  (59) 


>  <Type>  (59) 
NON-POLYMER

>  <Formula>  (59) 
C16 H23 N9 O

>  <ObservedFormula>  (59) 
C16 N9 O

>  <MolecularWeight>  (59) 
357.414

>  <ModifiedDate>  (59) 
2018-12-14

>  <Parent>  (59) 


>  <OneLetterCode>  (59) 


>  <SubcomponentList>  (59) 


>  <AmbiguousFlag>  (59) 
N

>  <InsertionCode>  (59) 


>  <InstanceId>  (59) 
5ZA8_27I_U_301

>  <ChemCompId>  (59) 
27I

>  <PdbId>  (59) 
5ZA8

>  <ResidueNumber>  (59) 
301

>  <InChI>  (59) 
InChI=1S/C16H23N9O/c1-24-9-10(8-20-24)11-14(25-6-4-2-3-5-7-25)22-13(17)12(21-11)15(26)23-16(18)19/h8-9H,2-7H2,1H3,(H2,17,22)(H4,18,19,23,26)

>  <InChIKey>  (59) 
RFNSXHZAURHCJF-UHFFFAOYSA-N

>  <SMILES>  (59) 
[H]/N=C(/N)\NC(=O)c1c(nc(c(n1)c2cnn(c2)C)N3CCCCCC3)N

>  <MissingHeavyAtoms>  (59) 
0

>  <Model>  (59) 
1

>  <AltIds>  (59) 


>  <pKI>  (59) 
6.29

>  <ChemblID>  (59) 
-

>  <standardized_canonical_smiles>  (59) 
Cn1cc(-c2nc(C(=O)NC(=N)N)c(N)nc2N2CCCCCC2)cn1

$$$$
5ZAJ_32I_U_301
     RDKit          3D

 30 32  0  0  0  0  0  0  0  0999 V2000
  -26.0530  -15.0730   -1.4880 N   0  0  0  0  0  0  0  0  0  0  0  0
  -30.2820  -18.6530   -4.6820 O   0  0  0  0  0  0  0  0  0  0  0  0
  -30.1670  -18.4810   -3.4760 C   0  0  0  0  0  0  0  0  0  0  0  0
  -30.9930  -18.9870   -2.5480 N   0  0  0  0  0  0  0  0  0  0  0  0
  -31.9420  -19.8960   -2.7500 C   0  0  0  0  0  0  0  0  0  0  0  0
  -32.1420  -20.3750   -3.8960 N   0  0  0  0  0  0  0  0  0  0  0  0
  -32.6850  -20.2630   -1.7140 N   0  0  0  0  0  0  0  0  0  0  0  0
  -29.0780  -17.5980   -2.9630 C   0  0  0  0  0  0  0  0  0  0  0  0
  -28.8930  -17.5280   -1.6260 N   0  0  0  0  0  0  0  0  0  0  0  0
  -27.9360  -16.7490   -1.0680 C   0  0  0  0  0  0  0  0  0  0  0  0
  -27.9450  -16.8530    0.4210 C   0  0  0  0  0  0  0  0  0  0  0  0
  -28.8800  -16.0930    1.1320 C   0  0  0  0  0  0  0  0  0  0  0  0
  -27.0870  -17.6920    1.1310 C   0  0  0  0  0  0  0  0  0  0  0  0
  -26.1480  -18.4710    0.5050 O   0  0  0  0  0  0  0  0  0  0  0  0
  -25.1530  -19.1800    1.2530 C   0  0  0  0  0  0  0  0  0  0  0  0
  -27.1780  -17.7310    2.4820 N   0  0  0  0  0  0  0  0  0  0  0  0
  -28.0810  -16.9850    3.1560 C   0  0  0  0  0  0  0  0  0  0  0  0
  -28.9340  -16.1670    2.4790 N   0  0  0  0  0  0  0  0  0  0  0  0
  -28.0950  -17.0820    4.5230 O   0  0  0  0  0  0  0  0  0  0  0  0
  -29.2540  -17.4040    5.2880 C   0  0  0  0  0  0  0  0  0  0  0  0
  -28.2750  -16.8350   -3.7980 C   0  0  0  0  0  0  0  0  0  0  0  0
  -28.4430  -16.8710   -5.1390 N   0  0  0  0  0  0  0  0  0  0  0  0
  -27.3220  -16.0470   -3.2500 N   0  0  0  0  0  0  0  0  0  0  0  0
  -27.1020  -15.9560   -1.8960 C   0  0  0  0  0  0  0  0  0  0  0  0
  -25.6650  -14.8370   -0.0810 C   0  0  0  0  0  0  0  0  0  0  0  0
  -25.2020  -13.4010    0.1890 C   0  0  0  0  0  0  0  0  0  0  0  0
  -25.2910  -14.3480   -2.5230 C   0  0  0  0  0  0  0  0  0  0  0  0
  -25.7490  -12.8880   -2.6260 C   0  0  0  0  0  0  0  0  0  0  0  0
  -26.7930  -12.4290   -1.6020 C   0  0  0  0  0  0  0  0  0  0  0  0
  -26.2620  -12.3610   -0.1700 C   0  0  0  0  0  0  0  0  0  0  0  0
 24  1  1  0
 25  1  1  0
 27  1  1  0
  3  2  2  0
  4  3  1  0
  8  3  1  0
  5  4  1  0
  6  5  2  0
  7  5  1  0
  9  8  2  0
 21  8  1  0
 10  9  1  0
 11 10  1  0
 24 10  2  0
 12 11  2  0
 13 11  1  0
 18 12  1  0
 14 13  1  0
 16 13  2  0
 15 14  1  0
 17 16  1  0
 18 17  2  0
 19 17  1  0
 20 19  1  0
 22 21  1  0
 23 21  2  0
 24 23  1  0
 26 25  1  0
 30 26  1  0
 28 27  1  0
 29 28  1  0
 30 29  1  0
A    1
N1
A    2
O1
A    3
C11
A    4
N3
A    5
C12
A    6
N5
A    7
N4
A    8
C18
A    9
N8
A   10
C8
A   11
C10
A   12
C13
A   13
C15
A   14
O3
A   15
C17
A   16
N7
A   17
C14
A   18
N6
A   19
O2
A   20
C16
A   21
C9
A   22
N2
A   23
N9
A   24
C7
A   25
C6
A   26
C1
A   27
C5
A   28
C4
A   29
C3
A   30
C2
M  END
>  <Id>  (60) 
5ZAJ_32I_U_301

>  <ChainId>  (60) 
U

>  <AsymId>  (60) 
B

>  <SeqNum>  (60) 
301

>  <Name>  (60) 
3-azanyl-5-(azepan-1-yl)-N-carbamimidoyl-6-(2,4-dimethoxypyrimidin-5-yl)pyrazine-2-carboxamide

>  <SystematicName>  (60) 
3-azanyl-5-(azepan-1-yl)-~{N}-carbamimidoyl-6-(2,4-dimethoxypyrimidin-5-yl)pyrazine-2-carboxamide

>  <Synonyms>  (60) 


>  <Type>  (60) 
NON-POLYMER

>  <Formula>  (60) 
C18 H25 N9 O3

>  <ObservedFormula>  (60) 
C18 N9 O3

>  <MolecularWeight>  (60) 
415.45

>  <ModifiedDate>  (60) 
2018-12-14

>  <Parent>  (60) 


>  <OneLetterCode>  (60) 


>  <SubcomponentList>  (60) 


>  <AmbiguousFlag>  (60) 
N

>  <InsertionCode>  (60) 


>  <InstanceId>  (60) 
5ZAJ_32I_U_301

>  <ChemCompId>  (60) 
32I

>  <PdbId>  (60) 
5ZAJ

>  <ResidueNumber>  (60) 
301

>  <InChI>  (60) 
InChI=1S/C18H25N9O3/c1-29-16-10(9-22-18(26-16)30-2)11-14(27-7-5-3-4-6-8-27)24-13(19)12(23-11)15(28)25-17(20)21/h9H,3-8H2,1-2H3,(H2,19,24)(H4,20,21,25,28)

>  <InChIKey>  (60) 
GYTXWTOJZQGKDP-UHFFFAOYSA-N

>  <SMILES>  (60) 
[H]/N=C(/N)\NC(=O)c1c(nc(c(n1)c2cnc(nc2OC)OC)N3CCCCCC3)N

>  <MissingHeavyAtoms>  (60) 
0

>  <Model>  (60) 
1

>  <AltIds>  (60) 


>  <pKI>  (60) 
7.34

>  <ChemblID>  (60) 
-

>  <standardized_canonical_smiles>  (60) 
COc1ncc(-c2nc(C(=O)NC(=N)N)c(N)nc2N2CCCCCC2)c(OC)n1

$$$$
3MHW_ABV_U_245
     RDKit          3D

 10 11  0  0  0  0  0  0  0  0999 V2000
  -29.5790  -17.6000    9.0430 C   0  0  0  0  0  0  0  0  0  0  0  0
  -30.4030  -19.8040   11.6350 N   0  0  0  0  0  0  0  0  0  0  0  0
  -31.6130  -19.1420    9.4990 S   0  0  0  0  0  0  0  0  0  0  0  0
  -28.4240  -17.0880    9.4690 C   0  0  0  0  0  0  0  0  0  0  0  0
  -32.4300  -20.9140   11.2400 N   0  0  0  0  0  0  0  0  0  0  0  0
  -27.8510  -17.4600   10.6270 C   0  0  0  0  0  0  0  0  0  0  0  0
  -28.4280  -18.4020   11.4040 C   0  0  0  0  0  0  0  0  0  0  0  0
  -29.5950  -18.9180   11.0100 C   0  0  0  0  0  0  0  0  0  0  0  0
  -30.1590  -18.4920    9.8400 C   0  0  0  0  0  0  0  0  0  0  0  0
  -31.4920  -20.0710   10.8950 C   0  0  0  0  0  0  0  0  0  0  0  0
  4  1  2  0
  9  1  1  0
  8  2  1  0
 10  2  2  0
  9  3  1  0
 10  3  1  0
  6  4  1  0
 10  5  1  0
  7  6  2  0
  8  7  1  0
  9  8  2  0
A    1
C1
A    2
N1
A    3
S1
A    4
C2
A    5
N2
A    6
C3
A    7
C4
A    8
C5
A    9
C6
A   10
C7
M  END
>  <Id>  (61) 
3MHW_ABV_U_245

>  <ChainId>  (61) 
U

>  <AsymId>  (61) 
C

>  <SeqNum>  (61) 
245

>  <Name>  (61) 
1,3-benzothiazol-2-amine

>  <SystematicName>  (61) 
1,3-benzothiazol-2-amine

>  <Synonyms>  (61) 
2-Aminobenzothiazole

>  <Type>  (61) 
NON-POLYMER

>  <Formula>  (61) 
C7 H6 N2 S

>  <ObservedFormula>  (61) 
C7 S N2

>  <MolecularWeight>  (61) 
150.201

>  <ModifiedDate>  (61) 
2011-06-04

>  <Parent>  (61) 


>  <OneLetterCode>  (61) 


>  <SubcomponentList>  (61) 


>  <AmbiguousFlag>  (61) 
N

>  <InsertionCode>  (61) 


>  <InstanceId>  (61) 
3MHW_ABV_U_245

>  <ChemCompId>  (61) 
ABV

>  <PdbId>  (61) 
3MHW

>  <ResidueNumber>  (61) 
245

>  <InChI>  (61) 
InChI=1S/C7H6N2S/c8-7-9-5-3-1-2-4-6(5)10-7/h1-4H,(H2,8,9)

>  <InChIKey>  (61) 
UHGULLIUJBCTEF-UHFFFAOYSA-N

>  <SMILES>  (61) 
c1ccc2c(c1)nc(s2)N

>  <MissingHeavyAtoms>  (61) 
0

>  <Model>  (61) 
1

>  <AltIds>  (61) 


>  <pKI>  (61) 
2.3

>  <ChemblID>  (61) 
-

>  <standardized_canonical_smiles>  (61) 
Nc1nc2ccccc2s1

$$$$
4H42_11E_U_301
     RDKit          3D

 17 18  0  0  0  0  0  0  0  0999 V2000
  -23.5650  -15.9680    9.1480 O   0  0  0  0  0  0  0  0  0  0  0  0
  -24.3240  -15.1780    9.6200 C   0  0  0  0  0  0  0  0  0  0  0  0
  -25.0700  -14.6010    8.9600 O   0  0  0  0  0  0  0  0  0  0  0  0
  -24.4460  -14.9430   11.0440 C   0  0  0  0  0  0  0  0  0  0  0  0
  -25.6190  -15.7320   11.1910 N   0  0  0  0  0  0  0  0  0  0  0  0
  -26.4340  -15.7090   12.2300 C   0  0  0  0  0  0  0  0  0  0  0  0
  -26.2440  -15.0580   13.2400 O   0  0  0  0  0  0  0  0  0  0  0  0
  -27.5740  -16.6390   12.1050 C   0  0  0  0  0  0  0  0  0  0  0  0
  -27.9810  -17.3680   13.2430 C   0  0  0  0  0  0  0  0  0  0  0  0
  -28.1800  -16.8160   10.8600 C   0  0  0  0  0  0  0  0  0  0  0  0
  -29.2050  -17.7470   10.8010 C   0  0  0  0  0  0  0  0  0  0  0  0
  -30.0380  -18.0530    9.3970 S   0  0  0  0  0  0  0  0  0  0  0  0
  -29.6540  -18.4840   11.9250 C   0  0  0  0  0  0  0  0  0  0  0  0
  -29.0370  -18.2720   13.1610 C   0  0  0  0  0  0  0  0  0  0  0  0
  -30.6930  -19.3230   11.5740 N   0  0  0  0  0  0  0  0  0  0  0  0
  -31.0140  -19.1960   10.2630 C   0  0  0  0  0  0  0  0  0  0  0  0
  -32.0080  -19.9160    9.7120 N   0  0  0  0  0  0  0  0  0  0  0  0
  2  1  1  0
  3  2  2  0
  4  2  1  0
  5  4  1  0
  6  5  1  0
  7  6  2  0
  8  6  1  0
  9  8  2  0
 10  8  1  0
 14  9  1  0
 11 10  2  0
 12 11  1  0
 13 11  1  0
 16 12  1  0
 14 13  2  0
 15 13  1  0
 16 15  2  0
 17 16  1  0
A    1
O3
A    2
C9
A    3
O2
A    4
C8
A    5
N1
A    6
C7
A    7
O1
A    8
C3
A    9
C2
A   10
C4
A   11
C5
A   12
S1
A   13
C6
A   14
C1
A   15
N2
A   16
C10
A   17
N3
M  END
>  <Id>  (62) 
4H42_11E_U_301

>  <ChainId>  (62) 
U

>  <AsymId>  (62) 
B

>  <SeqNum>  (62) 
301

>  <Name>  (62) 
N-[(2-amino-1,3-benzothiazol-6-yl)carbonyl]glycine

>  <SystematicName>  (62) 
2-[(2-azanyl-1,3-benzothiazol-6-yl)carbonylamino]ethanoic acid

>  <Synonyms>  (62) 


>  <Type>  (62) 
NON-POLYMER

>  <Formula>  (62) 
C10 H9 N3 O3 S

>  <ObservedFormula>  (62) 
C10 S N3 O3

>  <MolecularWeight>  (62) 
251.262

>  <ModifiedDate>  (62) 
2013-10-25

>  <Parent>  (62) 


>  <OneLetterCode>  (62) 


>  <SubcomponentList>  (62) 


>  <AmbiguousFlag>  (62) 
N

>  <InsertionCode>  (62) 


>  <InstanceId>  (62) 
4H42_11E_U_301

>  <ChemCompId>  (62) 
11E

>  <PdbId>  (62) 
4H42

>  <ResidueNumber>  (62) 
301

>  <InChI>  (62) 
InChI=1S/C10H9N3O3S/c11-10-13-6-2-1-5(3-7(6)17-10)9(16)12-4-8(14)15/h1-3H,4H2,(H2,11,13)(H,12,16)(H,14,15)

>  <InChIKey>  (62) 
JTXHRLUPQXMVPR-UHFFFAOYSA-N

>  <SMILES>  (62) 
c1cc2c(cc1C(=O)NCC(=O)O)sc(n2)N

>  <MissingHeavyAtoms>  (62) 
0

>  <Model>  (62) 
1

>  <AltIds>  (62) 


>  <pKI>  (62) 
3.47

>  <ChemblID>  (62) 
-

>  <standardized_canonical_smiles>  (62) 
Nc1nc2ccc(C(=O)NCC(=O)O)cc2s1

$$$$
3KHV_4AL_A_4069
     RDKit          3D

 10 10  0  0  0  0  0  0  0  0999 V2000
  -31.8330   89.8330  -10.8480 C   0  0  0  0  0  0  0  0  0  0  0  0
  -27.0910   85.9170  -12.6690 N   0  0  0  0  0  0  0  0  0  0  0  0
  -31.8060   90.4570  -11.9290 O   0  0  0  0  0  0  0  0  0  0  0  0
  -30.7840   88.9910  -11.1730 C   0  0  0  0  0  0  0  0  0  0  0  0
  -30.0510   88.5180  -10.1830 C   0  0  0  0  0  0  0  0  0  0  0  0
  -29.0160   87.7450  -10.2350 C   0  0  0  0  0  0  0  0  0  0  0  0
  -28.6230   87.4110  -11.4140 C   0  0  0  0  0  0  0  0  0  0  0  0
  -29.3270   87.8610  -12.4710 C   0  0  0  0  0  0  0  0  0  0  0  0
  -30.3950   88.6880  -12.4000 C   0  0  0  0  0  0  0  0  0  0  0  0
  -27.4590   86.4960  -11.4890 C   0  0  0  0  0  0  0  0  0  0  0  0
  3  1  1  0
  4  1  1  0
 10  2  1  0
  5  4  2  0
  9  4  1  0
  6  5  1  0
  7  6  2  0
  8  7  1  0
 10  7  1  0
  9  8  2  0
A    1
C
A    2
N
A    3
O
A    4
C1
A    5
C2
A    6
C3
A    7
C4
A    8
C5
A    9
C6
A   10
C7
M  END
>  <Id>  (63) 
3KHV_4AL_A_4069

>  <ChainId>  (63) 
A

>  <AsymId>  (63) 
B

>  <SeqNum>  (63) 
4069

>  <Name>  (63) 
[4-(aminomethyl)phenyl]methanol

>  <SystematicName>  (63) 
[4-(aminomethyl)phenyl]methanol

>  <Synonyms>  (63) 


>  <Type>  (63) 
NON-POLYMER

>  <Formula>  (63) 
C8 H11 N O

>  <ObservedFormula>  (63) 
C8 N O

>  <MolecularWeight>  (63) 
137.179

>  <ModifiedDate>  (63) 
2011-06-04

>  <Parent>  (63) 


>  <OneLetterCode>  (63) 


>  <SubcomponentList>  (63) 


>  <AmbiguousFlag>  (63) 
N

>  <InsertionCode>  (63) 


>  <InstanceId>  (63) 
3KHV_4AL_A_4069

>  <ChemCompId>  (63) 
4AL

>  <PdbId>  (63) 
3KHV

>  <ResidueNumber>  (63) 
4069

>  <InChI>  (63) 
InChI=1S/C8H11NO/c9-5-7-1-3-8(6-10)4-2-7/h1-4,10H,5-6,9H2

>  <InChIKey>  (63) 
WMOUKOAUAFESMR-UHFFFAOYSA-N

>  <SMILES>  (63) 
c1cc(ccc1CN)CO

>  <MissingHeavyAtoms>  (63) 
0

>  <Model>  (63) 
1

>  <AltIds>  (63) 


>  <pKI>  (63) 
1.85

>  <ChemblID>  (63) 
-

>  <standardized_canonical_smiles>  (63) 
NCc1ccc(CO)cc1

$$$$
3KGP_4AZ_A_4069
     RDKit          3D

 11 11  0  0  0  0  0  0  0  0999 V2000
  -26.8620   86.4380  -12.0030 C   0  0  0  0  0  0  0  0  0  0  0  0
  -26.0450   85.9370  -11.2960 O   0  0  0  0  0  0  0  0  0  0  0  0
  -27.9970   86.9950  -11.5950 C   0  0  0  0  0  0  0  0  0  0  0  0
  -32.0180   89.9830  -10.9120 N   0  0  0  0  0  0  0  0  0  0  0  0
  -28.2980   86.9990  -10.1870 C   0  0  0  0  0  0  0  0  0  0  0  0
  -29.4900   87.5790   -9.7190 C   0  0  0  0  0  0  0  0  0  0  0  0
  -30.3970   88.1590  -10.6310 C   0  0  0  0  0  0  0  0  0  0  0  0
  -30.1070   88.1560  -12.0110 C   0  0  0  0  0  0  0  0  0  0  0  0
  -28.9210   87.5800  -12.4910 C   0  0  0  0  0  0  0  0  0  0  0  0
  -31.6800   88.7790  -10.1280 C   0  0  0  0  0  0  0  0  0  0  0  0
  -26.3340   86.3040  -13.1500 O   0  0  0  0  0  0  0  0  0  0  0  0
  2  1  1  0
  3  1  1  0
 11  1  2  0
  5  3  2  0
  9  3  1  0
 10  4  1  0
  6  5  1  0
  7  6  2  0
  8  7  1  0
 10  7  1  0
  9  8  2  0
A    1
C
A    2
O
A    3
C1
A    4
N1
A    5
C2
A    6
C3
A    7
C4
A    8
C5
A    9
C6
A   10
C7
A   11
OXT
M  END
>  <Id>  (64) 
3KGP_4AZ_A_4069

>  <ChainId>  (64) 
A

>  <AsymId>  (64) 
B

>  <SeqNum>  (64) 
4069

>  <Name>  (64) 
4-(aminomethyl)benzoic acid

>  <SystematicName>  (64) 
4-(aminomethyl)benzoic acid

>  <Synonyms>  (64) 


>  <Type>  (64) 
NON-POLYMER

>  <Formula>  (64) 
C8 H9 N O2

>  <ObservedFormula>  (64) 
C8 N O2

>  <MolecularWeight>  (64) 
151.163

>  <ModifiedDate>  (64) 
2011-06-04

>  <Parent>  (64) 


>  <OneLetterCode>  (64) 


>  <SubcomponentList>  (64) 


>  <AmbiguousFlag>  (64) 
N

>  <InsertionCode>  (64) 


>  <InstanceId>  (64) 
3KGP_4AZ_A_4069

>  <ChemCompId>  (64) 
4AZ

>  <PdbId>  (64) 
3KGP

>  <ResidueNumber>  (64) 
4069

>  <InChI>  (64) 
InChI=1S/C8H9NO2/c9-5-6-1-3-7(4-2-6)8(10)11/h1-4H,5,9H2,(H,10,11)

>  <InChIKey>  (64) 
QCTBMLYLENLHLA-UHFFFAOYSA-N

>  <SMILES>  (64) 
c1cc(ccc1CN)C(=O)O

>  <MissingHeavyAtoms>  (64) 
0

>  <Model>  (64) 
1

>  <AltIds>  (64) 


>  <pKI>  (64) 
2.57

>  <ChemblID>  (64) 
-

>  <standardized_canonical_smiles>  (64) 
NCc1ccc(C(=O)O)cc1

$$$$
1VJ9_5IN_U_300
     RDKit          3D

 40 42  0  0  0  0  0  0  0  0999 V2000
   26.9540   13.3560   31.6730 C   0  0  0  0  0  0  0  0  0  0  0  0
   27.7720   12.2340   32.0140 O   0  0  0  0  0  0  0  0  0  0  0  0
   27.8100   11.3520   30.9070 C   0  0  0  0  0  0  0  0  0  0  0  0
   29.0800   10.4880   30.9340 C   0  0  0  0  0  0  0  0  0  0  0  0
   30.2260   11.3780   30.9580 N   0  0  0  0  0  0  0  0  0  0  0  0
   31.5370   10.8760   30.9940 C   0  0  0  0  0  0  0  0  0  0  0  0
   32.6730   11.9030   31.0090 C   0  0  0  0  0  0  0  0  0  0  0  0
   33.6380   11.7600   29.9540 N   0  0  0  0  0  0  0  0  0  0  0  0
   33.4900   12.0200   28.3290 S   0  0  0  0  0  0  0  0  0  0  0  0
   32.1710   10.9600   27.7080 C   0  0  0  0  0  0  0  0  0  0  0  0
   32.0150   11.2020   26.1530 C   0  0  0  0  0  0  0  0  0  0  0  0
   31.0180   12.1550   25.7940 C   0  0  0  0  0  0  0  0  0  0  0  0
   30.7720   12.4540   24.4210 C   0  0  0  0  0  0  0  0  0  0  0  0
   31.5280   11.7920   23.4260 C   0  0  0  0  0  0  0  0  0  0  0  0
   32.5220   10.8440   23.7770 C   0  0  0  0  0  0  0  0  0  0  0  0
   32.7670   10.5470   25.1410 C   0  0  0  0  0  0  0  0  0  0  0  0
   33.0920   13.3950   28.2000 O   0  0  0  0  0  0  0  0  0  0  0  0
   34.8540   11.7180   27.8430 O   0  0  0  0  0  0  0  0  0  0  0  0
   33.5270   11.8780   32.2870 C   0  0  0  0  0  0  0  0  0  0  0  0
   32.6690   12.0990   33.3800 O   0  0  0  0  0  0  0  0  0  0  0  0
   31.7780    9.6830   31.0070 O   0  0  0  0  0  0  0  0  0  0  0  0
   29.0220    9.5980   29.7210 C   0  0  0  0  0  0  0  0  0  0  0  0
   29.2530   10.0540   28.6280 O   0  0  0  0  0  0  0  0  0  0  0  0
   28.6870    8.2860   29.9850 N   0  0  0  0  0  0  0  0  0  0  0  0
   28.5770    7.3270   28.9210 C   0  0  0  0  0  0  0  0  0  0  0  0
   29.8580    6.5740   28.6010 C   0  0  0  0  0  0  0  0  0  0  0  0
   29.9480    5.2030   28.9490 C   0  0  0  0  0  0  0  0  0  0  0  0
   31.1100    4.4580   28.6640 C   0  0  0  0  0  0  0  0  0  0  0  0
   32.2480    5.0480   28.0170 C   0  0  0  0  0  0  0  0  0  0  0  0
   32.1860    6.4360   27.6530 C   0  0  0  0  0  0  0  0  0  0  0  0
   30.9930    7.1780   27.9490 C   0  0  0  0  0  0  0  0  0  0  0  0
   33.3730    4.2280   27.7550 C   0  0  0  0  0  0  0  0  0  0  0  0
   33.3600    2.9200   28.0940 N   0  0  0  0  0  0  0  0  0  0  0  0
   34.5170    4.6290   27.1660 N   0  0  0  0  0  0  0  0  0  0  0  0
   26.4810   14.0440   32.9540 C   0  0  0  0  0  0  0  0  0  0  0  0
   25.1870   13.7490   33.4850 C   0  0  0  0  0  0  0  0  0  0  0  0
   24.7470   14.3920   34.6820 C   0  0  0  0  0  0  0  0  0  0  0  0
   25.5980   15.3270   35.3460 C   0  0  0  0  0  0  0  0  0  0  0  0
   26.8890   15.6210   34.8150 C   0  0  0  0  0  0  0  0  0  0  0  0
   27.3330   14.9820   33.6210 C   0  0  0  0  0  0  0  0  0  0  0  0
  2  1  1  0
 35  1  1  0
  3  2  1  0
  4  3  1  0
  5  4  1  0
 22  4  1  0
  6  5  1  0
  7  6  1  0
 21  6  2  0
  8  7  1  0
 19  7  1  0
  9  8  1  0
 10  9  1  0
 17  9  2  0
 18  9  2  0
 11 10  1  0
 12 11  2  0
 16 11  1  0
 13 12  1  0
 14 13  2  0
 15 14  1  0
 16 15  2  0
 20 19  1  0
 23 22  2  0
 24 22  1  0
 25 24  1  0
 26 25  1  0
 27 26  2  0
 31 26  1  0
 28 27  1  0
 29 28  2  0
 30 29  1  0
 32 29  1  0
 31 30  2  0
 33 32  2  0
 34 32  1  0
 36 35  2  0
 40 35  1  0
 37 36  1  0
 38 37  2  0
 39 38  1  0
 40 39  2  0
A    1
C1
A    2
O2
A    3
C3
A    4
C4
A    5
N5
A    6
C6
A    7
C7
A    8
N8
A    9
S9
A   10
C10
A   11
C11
A   12
C12
A   13
C13
A   14
C14
A   15
C15
A   16
C16
A   17
O17
A   18
O18
A   19
C19
A   20
O20
A   21
O21
A   22
C22
A   23
O23
A   24
N24
A   25
C25
A   26
C26
A   27
C27
A   28
C28
A   29
C29
A   30
C30
A   31
C31
A   32
C32
A   33
N33
A   34
N34
A   35
C35
A   36
C36
A   37
C37
A   38
C38
A   39
C39
A   40
C40
M  END
>  <Id>  (65) 
1VJ9_5IN_U_300

>  <ChainId>  (65) 
U

>  <AsymId>  (65) 
D

>  <SeqNum>  (65) 
300

>  <Name>  (65) 
N-(BENZYLSULFONYL)-L-SERYL-N~1~-{4-[AMINO(IMINO)METHYL]BENZYL}-O-BENZYL-L-SERINAMIDE

>  <SystematicName>  (65) 
(2S)-N-[(4-carbamimidoylphenyl)methyl]-2-[[(2R)-3-hydroxy-2-(phenylmethylsulfonylamino)propanoyl]amino]-3-phenylmethoxy-propanamide

>  <Synonyms>  (65) 


>  <Type>  (65) 
NON-POLYMER

>  <Formula>  (65) 
C28 H33 N5 O6 S

>  <ObservedFormula>  (65) 
C28 S N5 O6

>  <MolecularWeight>  (65) 
567.657

>  <ModifiedDate>  (65) 
2011-06-04

>  <Parent>  (65) 


>  <OneLetterCode>  (65) 


>  <SubcomponentList>  (65) 


>  <AmbiguousFlag>  (65) 
N

>  <InsertionCode>  (65) 


>  <InstanceId>  (65) 
1VJ9_5IN_U_300

>  <ChemCompId>  (65) 
5IN

>  <PdbId>  (65) 
1VJ9

>  <ResidueNumber>  (65) 
300

>  <InChI>  (65) 
InChI=1S/C28H33N5O6S/c29-26(30)23-13-11-20(12-14-23)15-31-27(35)25(18-39-17-21-7-3-1-4-8-21)32-28(36)24(16-34)33-40(37,38)19-22-9-5-2-6-10-22/h1-14,24-25,33-34H,15-19H2,(H3,29,30)(H,31,35)(H,32,36)/t24-,25+/m1/s1

>  <InChIKey>  (65) 
RLZYVXBJYQEXBP-RPBOFIJWSA-N

>  <SMILES>  (65) 
c1ccc(cc1)COC[C@@H](C(=O)NCc2ccc(cc2)C(=N)N)NC(=O)[C@@H](CO)NS(=O)(=O)Cc3ccccc3

>  <MissingHeavyAtoms>  (65) 
0

>  <Model>  (65) 
1

>  <AltIds>  (65) 


>  <pKI>  (65) 
7.55

>  <ChemblID>  (65) 
-

>  <standardized_canonical_smiles>  (65) 
N=C(N)c1ccc(CNC(=O)[C@H](COCc2ccccc2)NC(=O)[C@@H](CO)NS(=O)(=O)Cc2ccccc2)cc1

$$$$
1C5Y_ESP_B_251
     RDKit          3D

 12 13  0  0  0  0  0  0  0  0999 V2000
    8.1660   -0.9270   25.8650 C   0  0  0  0  0  0  0  0  0  0  0  0
    8.4900    0.3310   25.4350 C   0  0  0  0  0  0  0  0  0  0  0  0
    7.5500   -1.0330   27.0040 N   0  0  0  0  0  0  0  0  0  0  0  0
    8.5110   -1.9100   25.0980 N   0  0  0  0  0  0  0  0  0  0  0  0
    9.0730    0.5490   23.7620 S   0  0  0  0  0  0  0  0  0  0  0  0
    9.2650    2.2370   23.9650 C   0  0  0  0  0  0  0  0  0  0  0  0
    8.8960    2.5900   25.2540 C   0  0  0  0  0  0  0  0  0  0  0  0
    8.4730    1.5580   26.0570 C   0  0  0  0  0  0  0  0  0  0  0  0
    9.6740    3.1910   23.1680 N   0  0  0  0  0  0  0  0  0  0  0  0
    9.7660    4.4770   23.4640 C   0  0  0  0  0  0  0  0  0  0  0  0
    9.3970    4.8440   24.7560 C   0  0  0  0  0  0  0  0  0  0  0  0
    8.9570    3.9010   25.6530 C   0  0  0  0  0  0  0  0  0  0  0  0
  2  1  1  0
  3  1  1  0
  4  1  2  0
  5  2  1  0
  8  2  2  0
  6  5  1  0
  7  6  2  0
  9  6  1  0
  8  7  1  0
 12  7  1  0
 10  9  2  0
 11 10  1  0
 12 11  2  0
M  CHG  1   4   1
A    1
C0
A    2
C1
A    3
N1
A    4
N2
A    5
S2
A    6
C3
A    7
C4
A    8
C5
A    9
N6
A   10
C7
A   11
C8
A   12
C9
M  END
>  <Id>  (66) 
1C5Y_ESP_B_251

>  <ChainId>  (66) 
B

>  <AsymId>  (66) 
F

>  <SeqNum>  (66) 
251

>  <Name>  (66) 
THIENO[2,3-B]PYRIDINE-2-CARBOXAMIDINE

>  <SystematicName>  (66) 
(amino-thieno[5,4-b]pyridin-2-yl-methylidene)azanium

>  <Synonyms>  (66) 


>  <Type>  (66) 
NON-POLYMER

>  <Formula>  (66) 
C8 H8 N3 S

>  <ObservedFormula>  (66) 
C8 S N3

>  <MolecularWeight>  (66) 
178.234

>  <ModifiedDate>  (66) 
2011-06-04

>  <Parent>  (66) 


>  <OneLetterCode>  (66) 


>  <SubcomponentList>  (66) 


>  <AmbiguousFlag>  (66) 
N

>  <InsertionCode>  (66) 


>  <InstanceId>  (66) 
1C5Y_ESP_B_251

>  <ChemCompId>  (66) 
ESP

>  <PdbId>  (66) 
1C5Y

>  <ResidueNumber>  (66) 
251

>  <InChI>  (66) 
InChI=1S/C8H7N3S/c9-7(10)6-4-5-2-1-3-11-8(5)12-6/h1-4H,(H3,9,10)/p+1

>  <InChIKey>  (66) 
GZEJMYFXZMUAEC-UHFFFAOYSA-O

>  <SMILES>  (66) 
c1cc2cc(sc2nc1)C(=[NH2+])N

>  <MissingHeavyAtoms>  (66) 
0

>  <Model>  (66) 
1

>  <AltIds>  (66) 


>  <pKI>  (66) 
4.2

>  <ChemblID>  (66) 
-

>  <standardized_canonical_smiles>  (66) 
NC(=[NH2+])c1cc2cccnc2s1

$$$$
1GI8_BMZ_B_246
     RDKit          3D

 19 21  0  0  0  0  0  0  0  0999 V2000
    8.9340    1.6430   24.7290 C   0  0  0  0  0  0  0  0  0  0  0  0
    9.6920    1.4510   23.5520 C   0  0  0  0  0  0  0  0  0  0  0  0
   10.3200    2.5160   22.9130 C   0  0  0  0  0  0  0  0  0  0  0  0
   10.1580    3.7640   23.4840 C   0  0  0  0  0  0  0  0  0  0  0  0
    9.4560    4.0000   24.6040 C   0  0  0  0  0  0  0  0  0  0  0  0
    8.8340    2.9700   25.2480 C   0  0  0  0  0  0  0  0  0  0  0  0
    8.3100    0.5980   25.3930 C   0  0  0  0  0  0  0  0  0  0  0  0
    7.8570    0.8250   26.5920 N   0  0  0  0  0  0  0  0  0  0  0  0
    8.1960   -0.5750   24.8100 N   0  0  0  0  0  0  0  0  0  0  0  0
   10.6090    4.9150   23.1410 N   0  0  0  0  0  0  0  0  0  0  0  0
    9.4440    5.2580   24.9790 N   0  0  0  0  0  0  0  0  0  0  0  0
   10.1820    5.7860   24.0150 C   0  0  0  0  0  0  0  0  0  0  0  0
   10.4530    7.1440   23.8690 C   0  0  0  0  0  0  0  0  0  0  0  0
   10.0690    8.0570   24.8520 C   0  0  0  0  0  0  0  0  0  0  0  0
   10.2680    9.4210   24.6990 C   0  0  0  0  0  0  0  0  0  0  0  0
   10.8720    9.9120   23.5440 C   0  0  0  0  0  0  0  0  0  0  0  0
   11.2740    9.0340   22.5480 C   0  0  0  0  0  0  0  0  0  0  0  0
   11.0710    7.6580   22.7020 C   0  0  0  0  0  0  0  0  0  0  0  0
   11.4970    6.8070   21.6840 O   0  0  0  0  0  0  0  0  0  0  0  0
  2  1  2  0
  6  1  1  0
  7  1  1  0
  3  2  1  0
  4  3  2  0
  5  4  1  0
 10  4  1  0
  6  5  2  0
 11  5  1  0
  8  7  1  0
  9  7  2  0
 12 10  1  0
 12 11  2  0
 13 12  1  0
 14 13  2  0
 18 13  1  0
 15 14  1  0
 16 15  2  0
 17 16  1  0
 18 17  2  0
 19 18  1  0
M  CHG  1   9   1
A    1
C1
A    2
C2
A    3
C3
A    4
C4
A    5
C5
A    6
C6
A    7
C7
A    8
N1
A    9
N2
A   10
N3
A   11
N4
A   12
C8
A   13
C1'
A   14
C2'
A   15
C3'
A   16
C4'
A   17
C5'
A   18
C6'
A   19
O6'
M  END
>  <Id>  (67) 
1GI8_BMZ_B_246

>  <ChainId>  (67) 
B

>  <AsymId>  (67) 
E

>  <SeqNum>  (67) 
246

>  <Name>  (67) 
2-(2-HYDROXY-PHENYL)-1H-BENZOIMIDAZOLE-5-CARBOXAMIDINE

>  <SystematicName>  (67) 
[amino-[2-(2-hydroxyphenyl)-1H-benzimidazol-5-yl]methylidene]azanium

>  <Synonyms>  (67) 


>  <Type>  (67) 
NON-POLYMER

>  <Formula>  (67) 
C14 H13 N4 O

>  <ObservedFormula>  (67) 
C14 N4 O

>  <MolecularWeight>  (67) 
253.279

>  <ModifiedDate>  (67) 
2011-06-04

>  <Parent>  (67) 


>  <OneLetterCode>  (67) 


>  <SubcomponentList>  (67) 


>  <AmbiguousFlag>  (67) 
N

>  <InsertionCode>  (67) 


>  <InstanceId>  (67) 
1GI8_BMZ_B_246

>  <ChemCompId>  (67) 
BMZ

>  <PdbId>  (67) 
1GI8

>  <ResidueNumber>  (67) 
246

>  <InChI>  (67) 
InChI=1S/C14H12N4O/c15-13(16)8-5-6-10-11(7-8)18-14(17-10)9-3-1-2-4-12(9)19/h1-7,19H,(H3,15,16)(H,17,18)/p+1

>  <InChIKey>  (67) 
URJKRCBBKTXOHS-UHFFFAOYSA-O

>  <SMILES>  (67) 
c1ccc(c(c1)c2[nH]c3ccc(cc3n2)C(=[NH2+])N)O

>  <MissingHeavyAtoms>  (67) 
0

>  <Model>  (67) 
1

>  <AltIds>  (67) 


>  <pKI>  (67) 
5.05

>  <ChemblID>  (67) 
-

>  <standardized_canonical_smiles>  (67) 
NC(=[NH2+])c1ccc2[nH]c(-c3ccccc3O)nc2c1

$$$$
1GI7_120_B_246
     RDKit          3D

 19 21  0  0  0  0  0  0  0  0999 V2000
    8.9630    0.7940   25.0180 C   0  0  0  0  0  0  0  0  0  0  0  0
    9.5610    1.0090   23.7500 C   0  0  0  0  0  0  0  0  0  0  0  0
    9.9900    2.2670   23.3380 C   0  0  0  0  0  0  0  0  0  0  0  0
    9.8150    3.3180   24.2040 C   0  0  0  0  0  0  0  0  0  0  0  0
    9.2550    3.1780   25.4140 C   0  0  0  0  0  0  0  0  0  0  0  0
    8.8170    1.9330   25.8500 C   0  0  0  0  0  0  0  0  0  0  0  0
    8.5420   -0.4870   25.4260 C   0  0  0  0  0  0  0  0  0  0  0  0
    7.8380   -0.6200   26.5240 N   0  0  0  0  0  0  0  0  0  0  0  0
    8.8560   -1.5390   24.7120 N   0  0  0  0  0  0  0  0  0  0  0  0
   10.1100    4.5660   24.1150 N   0  0  0  0  0  0  0  0  0  0  0  0
    9.1890    4.3050   26.0850 N   0  0  0  0  0  0  0  0  0  0  0  0
    9.7410    5.1530   25.2240 C   0  0  0  0  0  0  0  0  0  0  0  0
    9.8790    6.5270   25.4620 C   0  0  0  0  0  0  0  0  0  0  0  0
    9.6770    7.0270   26.7400 C   0  0  0  0  0  0  0  0  0  0  0  0
    9.8110    8.3740   26.9850 C   0  0  0  0  0  0  0  0  0  0  0  0
   10.1480    9.2360   25.9560 C   0  0  0  0  0  0  0  0  0  0  0  0
   10.3390    8.7610   24.7400 N   0  0  0  0  0  0  0  0  0  0  0  0
   10.2210    7.4720   24.4500 C   0  0  0  0  0  0  0  0  0  0  0  0
   10.3930    7.0970   23.3080 O   0  0  0  0  0  0  0  0  0  0  0  0
  2  1  2  0
  6  1  1  0
  7  1  1  0
  3  2  1  0
  4  3  2  0
  5  4  1  0
 10  4  1  0
  6  5  2  0
 11  5  1  0
  8  7  1  0
  9  7  2  0
 12 10  1  0
 12 11  2  0
 13 12  1  0
 14 13  2  0
 18 13  1  0
 15 14  1  0
 16 15  2  0
 17 16  1  0
 18 17  1  0
 19 18  2  0
M  CHG  1   9   1
A    1
C1
A    2
C2
A    3
C3
A    4
C4
A    5
C5
A    6
C6
A    7
C7
A    8
N1
A    9
N2
A   10
N3
A   11
N4
A   12
C8
A   13
C1'
A   14
C2'
A   15
C3'
A   16
C4'
A   17
N5'
A   18
C6'
A   19
O6'
M  END
>  <Id>  (68) 
1GI7_120_B_246

>  <ChainId>  (68) 
B

>  <AsymId>  (68) 
C

>  <SeqNum>  (68) 
246

>  <Name>  (68) 
2-(2-OXO-1,2-DIHYDRO-PYRIDIN-3-YL)-1H-BENZOIMIDAZOLE-5-CARBOXAMIDINE

>  <SystematicName>  (68) 
[amino-[2-(2-oxo-1H-pyridin-3-yl)-1H-benzimidazol-5-yl]methylidene]azanium

>  <Synonyms>  (68) 


>  <Type>  (68) 
NON-POLYMER

>  <Formula>  (68) 
C13 H12 N5 O

>  <ObservedFormula>  (68) 
C13 N5 O

>  <MolecularWeight>  (68) 
254.267

>  <ModifiedDate>  (68) 
2011-06-04

>  <Parent>  (68) 


>  <OneLetterCode>  (68) 


>  <SubcomponentList>  (68) 


>  <AmbiguousFlag>  (68) 
N

>  <InsertionCode>  (68) 


>  <InstanceId>  (68) 
1GI7_120_B_246

>  <ChemCompId>  (68) 
120

>  <PdbId>  (68) 
1GI7

>  <ResidueNumber>  (68) 
246

>  <InChI>  (68) 
InChI=1S/C13H11N5O/c14-11(15)7-3-4-9-10(6-7)18-12(17-9)8-2-1-5-16-13(8)19/h1-6H,(H3,14,15)(H,16,19)(H,17,18)/p+1

>  <InChIKey>  (68) 
PUOKYJMONGPAIM-UHFFFAOYSA-O

>  <SMILES>  (68) 
c1cc2c(cc1C(=[NH2+])N)nc([nH]2)C3=CC=CNC3=O

>  <MissingHeavyAtoms>  (68) 
0

>  <Model>  (68) 
1

>  <AltIds>  (68) 


>  <pKI>  (68) 
4.51

>  <ChemblID>  (68) 
-

>  <standardized_canonical_smiles>  (68) 
NC(=[NH2+])c1ccc2[nH]c(-c3ccc[nH]c3=O)nc2c1

$$$$
2R2W_4PG_U_300
     RDKit          3D

 19 20  0  0  0  0  0  0  0  0999 V2000
   33.8740    4.6450   27.8850 C   0  0  0  0  0  0  0  0  0  0  0  0
   31.9330    5.9770   28.4410 C   0  0  0  0  0  0  0  0  0  0  0  0
   31.3210    5.1850   29.4660 C   0  0  0  0  0  0  0  0  0  0  0  0
   31.1760    6.9990   27.8130 C   0  0  0  0  0  0  0  0  0  0  0  0
   27.7360    6.6410   29.7020 C   0  0  0  0  0  0  0  0  0  0  0  0
   27.0800    7.9250   29.2180 C   0  0  0  0  0  0  0  0  0  0  0  0
   27.1470    9.2390   30.0010 C   0  0  0  0  0  0  0  0  0  0  0  0
   26.5040   10.4070   29.4820 C   0  0  0  0  0  0  0  0  0  0  0  0
   26.5540   11.6400   30.1920 C   0  0  0  0  0  0  0  0  0  0  0  0
   27.2480   11.7220   31.4370 C   0  0  0  0  0  0  0  0  0  0  0  0
   27.8900   10.5710   31.9660 C   0  0  0  0  0  0  0  0  0  0  0  0
   27.8410    9.3350   31.2560 C   0  0  0  0  0  0  0  0  0  0  0  0
   33.2440    5.7690   28.0740 N   0  0  0  0  0  0  0  0  0  0  0  0
   35.1060    4.7490   27.5640 N   0  0  0  0  0  0  0  0  0  0  0  0
   33.3760    3.4690   28.0040 N   0  0  0  0  0  0  0  0  0  0  0  0
   29.9760    5.4160   29.8510 C   0  0  0  0  0  0  0  0  0  0  0  0
   29.2020    6.4390   29.2310 C   0  0  0  0  0  0  0  0  0  0  0  0
   29.8190    7.2340   28.1990 C   0  0  0  0  0  0  0  0  0  0  0  0
   26.4770    7.8860   28.1520 O   0  0  0  0  0  0  0  0  0  0  0  0
 13  1  1  0
 14  1  1  0
 15  1  2  0
  3  2  2  0
  4  2  1  0
 13  2  1  0
 16  3  1  0
 18  4  2  0
  6  5  1  0
 17  5  1  0
  7  6  1  0
 19  6  2  0
  8  7  2  0
 12  7  1  0
  9  8  1  0
 10  9  2  0
 11 10  1  0
 12 11  2  0
 17 16  2  0
 18 17  1  0
A    1
C1
A    2
C2
A    3
C3
A    4
C7
A    5
C8
A    6
C9
A    7
C10
A    8
C11
A    9
C12
A   10
C13
A   11
C14
A   12
C15
A   13
N1
A   14
N2
A   15
N3
A   16
C4
A   17
C5
A   18
C6
A   19
O1
M  END
>  <Id>  (69) 
2R2W_4PG_U_300

>  <ChainId>  (69) 
U

>  <AsymId>  (69) 
C

>  <SeqNum>  (69) 
300

>  <Name>  (69) 
1-[4-(2-oxo-2-phenylethyl)phenyl]guanidine

>  <SystematicName>  (69) 
1-(4-phenacylphenyl)guanidine

>  <Synonyms>  (69) 


>  <Type>  (69) 
NON-POLYMER

>  <Formula>  (69) 
C15 H15 N3 O

>  <ObservedFormula>  (69) 
C15 N3 O

>  <MolecularWeight>  (69) 
253.299

>  <ModifiedDate>  (69) 
2011-06-04

>  <Parent>  (69) 


>  <OneLetterCode>  (69) 


>  <SubcomponentList>  (69) 


>  <AmbiguousFlag>  (69) 


>  <InsertionCode>  (69) 


>  <InstanceId>  (69) 
2R2W_4PG_U_300

>  <ChemCompId>  (69) 
4PG

>  <PdbId>  (69) 
2R2W

>  <ResidueNumber>  (69) 
300

>  <InChI>  (69) 
InChI=1S/C15H15N3O/c16-15(17)18-13-8-6-11(7-9-13)10-14(19)12-4-2-1-3-5-12/h1-9H,10H2,(H4,16,17,18)

>  <InChIKey>  (69) 
MERNPSIIBFTCAI-UHFFFAOYSA-N

>  <SMILES>  (69) 
[H]/N=C(/N)\Nc1ccc(cc1)CC(=O)c2ccccc2

>  <MissingHeavyAtoms>  (69) 
0

>  <Model>  (69) 
1

>  <AltIds>  (69) 


>  <pKI>  (69) 
4.47

>  <ChemblID>  (69) 
-

>  <standardized_canonical_smiles>  (69) 
N=C(N)Nc1ccc(CC(=O)c2ccccc2)cc1

$$$$
1EJN_AGB_A_800
     RDKit          3D

 25 28  0  0  0  0  0  0  0  0999 V2000
   22.6160   11.2980   27.0970 C   0  0  0  0  0  0  0  0  0  0  0  0
   22.7960   12.7650   27.5790 C   0  0  0  0  0  0  0  0  0  0  0  0
   23.9920   10.5490   27.1350 C   0  0  0  0  0  0  0  0  0  0  0  0
   21.6000   10.5700   28.0280 C   0  0  0  0  0  0  0  0  0  0  0  0
   22.3300   12.0400   29.9730 C   0  0  0  0  0  0  0  0  0  0  0  0
   23.3450   12.7570   29.0310 C   0  0  0  0  0  0  0  0  0  0  0  0
   22.1400   10.5700   29.4910 C   0  0  0  0  0  0  0  0  0  0  0  0
   24.7070   12.0000   29.0690 C   0  0  0  0  0  0  0  0  0  0  0  0
   23.5050    9.8130   29.5460 C   0  0  0  0  0  0  0  0  0  0  0  0
   24.5380   10.5130   28.6040 C   0  0  0  0  0  0  0  0  0  0  0  0
   27.2030    8.0200   29.0940 N   0  0  0  0  0  0  0  0  0  0  0  0
   26.0830    8.5320   28.5490 C   0  0  0  0  0  0  0  0  0  0  0  0
   25.8560    9.8630   28.7070 N   0  0  0  0  0  0  0  0  0  0  0  0
   25.3160    7.7840   27.9360 O   0  0  0  0  0  0  0  0  0  0  0  0
   27.5820    6.6420   28.8350 C   0  0  0  0  0  0  0  0  0  0  0  0
   29.7790    5.4990   29.3810 C   0  0  0  0  0  0  0  0  0  0  0  0
   29.0900    6.4880   28.6600 C   0  0  0  0  0  0  0  0  0  0  0  0
   29.7990    7.3260   27.7680 C   0  0  0  0  0  0  0  0  0  0  0  0
   31.1620    7.0740   27.5100 C   0  0  0  0  0  0  0  0  0  0  0  0
   31.7920    5.9960   28.1480 C   0  0  0  0  0  0  0  0  0  0  0  0
   31.1050    5.2080   29.0770 C   0  0  0  0  0  0  0  0  0  0  0  0
   33.1960    5.8990   27.6390 N   0  0  0  0  0  0  0  0  0  0  0  0
   33.2340    3.4270   27.5260 N   0  0  0  0  0  0  0  0  0  0  0  0
   33.5800    4.6700   27.5130 C   0  0  0  0  0  0  0  0  0  0  0  0
   34.8510    4.8760   27.2810 N   0  0  0  0  0  0  0  0  0  0  0  0
  2  1  1  0
  3  1  1  0
  4  1  1  0
  6  2  1  0
 10  3  1  0
  7  4  1  0
  6  5  1  0
  7  5  1  0
  8  6  1  0
  9  7  1  0
 10  8  1  0
 10  9  1  0
 13 10  1  0
 12 11  1  0
 15 11  1  0
 13 12  1  0
 14 12  2  0
 17 15  1  0
 17 16  2  0
 21 16  1  0
 18 17  1  0
 19 18  2  0
 20 19  1  0
 21 20  2  0
 22 20  1  0
 24 22  1  0
 24 23  2  0
 25 24  1  0
A    1
C1
A    2
C2
A    3
C3
A    4
C4
A    5
C5
A    6
C6
A    7
C7
A    8
C8
A    9
C9
A   10
C10
A   11
N1
A   12
C12
A   13
N2
A   14
O1
A   15
C11
A   16
C13
A   17
C14
A   18
C15
A   19
C16
A   20
C17
A   21
C18
A   22
N3
A   23
N4
A   24
C19
A   25
N5
M  END
>  <Id>  (70) 
1EJN_AGB_A_800

>  <ChainId>  (70) 
A

>  <AsymId>  (70) 
C

>  <SeqNum>  (70) 
800

>  <Name>  (70) 
N-(1-ADAMANTYL)-N'-(4-GUANIDINOBENZYL)UREA

>  <SystematicName>  (70) 
3-(1-adamantyl)-1-[(4-carbamimidamidophenyl)methyl]urea

>  <Synonyms>  (70) 


>  <Type>  (70) 
NON-POLYMER

>  <Formula>  (70) 
C19 H27 N5 O

>  <ObservedFormula>  (70) 
C19 N5 O

>  <MolecularWeight>  (70) 
341.451

>  <ModifiedDate>  (70) 
2011-06-04

>  <Parent>  (70) 


>  <OneLetterCode>  (70) 


>  <SubcomponentList>  (70) 


>  <AmbiguousFlag>  (70) 
N

>  <InsertionCode>  (70) 


>  <InstanceId>  (70) 
1EJN_AGB_A_800

>  <ChemCompId>  (70) 
AGB

>  <PdbId>  (70) 
1EJN

>  <ResidueNumber>  (70) 
800

>  <InChI>  (70) 
InChI=1S/C19H27N5O/c20-17(21)23-16-3-1-12(2-4-16)11-22-18(25)24-19-8-13-5-14(9-19)7-15(6-13)10-19/h1-4,13-15H,5-11H2,(H4,20,21,23)(H2,22,24,25)/t13-,14+,15-,19-

>  <InChIKey>  (70) 
YQPLKJCBEOVDBS-CSVIQDERSA-N

>  <SMILES>  (70) 
[H]/N=C(/N)\Nc1ccc(cc1)CNC(=O)NC23CC4CC(C2)CC(C4)C3

>  <MissingHeavyAtoms>  (70) 
0

>  <Model>  (70) 
1

>  <AltIds>  (70) 


>  <pKI>  (70) 
5.62

>  <ChemblID>  (70) 
-

>  <standardized_canonical_smiles>  (70) 
N=C(N)Nc1ccc(CNC(=O)N[C@]23C[C@H]4C[C@H](C[C@H](C4)C2)C3)cc1

$$$$
1W12_SL1_U_1245
     RDKit          3D

 43 46  0  0  0  0  0  0  0  0999 V2000
   25.2970   17.0840   56.2410 N   0  0  0  0  0  0  0  0  0  0  0  0
   25.7400   18.3280   55.5940 C   0  0  0  0  0  0  0  0  0  0  0  0
   24.6880   19.3460   55.7260 C   0  0  0  0  0  0  0  0  0  0  0  0
   23.6040   18.9760   56.1720 O   0  0  0  0  0  0  0  0  0  0  0  0
   24.8680   20.6180   55.3640 N   0  0  0  0  0  0  0  0  0  0  0  0
   23.7650   21.5460   55.4330 C   0  0  0  0  0  0  0  0  0  0  0  0
   22.7580   21.3020   54.3980 C   0  0  0  0  0  0  0  0  0  0  0  0
   23.1740   20.7550   53.3500 O   0  0  0  0  0  0  0  0  0  0  0  0
   21.4840   21.6480   54.5870 N   0  0  0  0  0  0  0  0  0  0  0  0
   20.5970   21.5530   53.4700 C   0  0  0  0  0  0  0  0  0  0  0  0
   20.1560   22.8210   52.9340 C   0  0  0  0  0  0  0  0  0  0  0  0
   20.9390   23.7770   52.8400 O   0  0  0  0  0  0  0  0  0  0  0  0
   26.0870   21.0540   54.8980 C   0  0  0  0  0  0  0  0  0  0  0  0
   26.8440   20.3180   53.9050 C   0  0  0  0  0  0  0  0  0  0  0  0
   26.4380   19.0750   53.3570 C   0  0  0  0  0  0  0  0  0  0  0  0
   25.9780   18.1710   54.1970 N   0  0  0  0  0  0  0  0  0  0  0  0
   26.5200   18.8070   51.9650 C   0  0  0  0  0  0  0  0  0  0  0  0
   26.1530   19.7670   50.9590 C   0  0  0  0  0  0  0  0  0  0  0  0
   26.2890   19.5250   49.5700 C   0  0  0  0  0  0  0  0  0  0  0  0
   26.7620   18.2500   49.1270 C   0  0  0  0  0  0  0  0  0  0  0  0
   27.1390   17.2520   50.0760 C   0  0  0  0  0  0  0  0  0  0  0  0
   26.9870   17.5470   51.4570 C   0  0  0  0  0  0  0  0  0  0  0  0
   28.0740   20.8980   53.4690 C   0  0  0  0  0  0  0  0  0  0  0  0
   28.5570   22.1390   53.9610 C   0  0  0  0  0  0  0  0  0  0  0  0
   27.8390   22.8070   54.9830 C   0  0  0  0  0  0  0  0  0  0  0  0
   26.6000   22.2800   55.4260 C   0  0  0  0  0  0  0  0  0  0  0  0
   19.2740   20.7470   53.7080 C   0  0  0  0  0  0  0  0  0  0  0  0
   19.6870   19.3040   54.1100 C   0  0  0  0  0  0  0  0  0  0  0  0
   18.5020   18.4070   54.5370 C   0  0  0  0  0  0  0  0  0  0  0  0
   18.9480   17.0250   54.4910 N   0  0  0  0  0  0  0  0  0  0  0  0
   18.1210   16.0090   54.8330 C   0  0  0  0  0  0  0  0  0  0  0  0
   16.8230   16.2240   55.1810 N   0  0  0  0  0  0  0  0  0  0  0  0
   18.5150   14.7280   54.8560 N   0  0  0  0  0  0  0  0  0  0  0  0
   26.5140   16.3840   57.1650 S   0  0  0  0  0  0  0  0  0  0  0  0
   27.8300   16.7990   56.4970 O   0  0  0  0  0  0  0  0  0  0  0  0
   26.3280   14.9000   57.0820 O   0  0  0  0  0  0  0  0  0  0  0  0
   26.6830   16.7860   58.8660 C   0  0  0  0  0  0  0  0  0  0  0  0
   26.7880   18.2650   58.8010 C   0  0  0  0  0  0  0  0  0  0  0  0
   27.9640   18.9690   58.3960 C   0  0  0  0  0  0  0  0  0  0  0  0
   28.0420   20.3970   58.3760 C   0  0  0  0  0  0  0  0  0  0  0  0
   26.8990   21.1280   58.7920 C   0  0  0  0  0  0  0  0  0  0  0  0
   25.6810   20.4620   59.1180 C   0  0  0  0  0  0  0  0  0  0  0  0
   25.6610   19.0430   59.1550 C   0  0  0  0  0  0  0  0  0  0  0  0
  2  1  1  0
 34  1  1  0
  3  2  1  0
 16  2  1  0
  4  3  2  0
  5  3  1  0
  6  5  1  0
 13  5  1  0
  7  6  1  0
  8  7  2  0
  9  7  1  0
 10  9  1  0
 11 10  1  0
 27 10  1  0
 12 11  2  0
 14 13  2  0
 26 13  1  0
 15 14  1  0
 23 14  1  0
 16 15  2  0
 17 15  1  0
 18 17  2  0
 22 17  1  0
 19 18  1  0
 20 19  2  0
 21 20  1  0
 22 21  2  0
 24 23  2  0
 25 24  1  0
 26 25  2  0
 28 27  1  0
 29 28  1  0
 30 29  1  0
 31 30  1  0
 32 31  1  0
 33 31  2  0
 35 34  2  0
 36 34  2  0
 37 34  1  0
 38 37  1  0
 39 38  2  0
 43 38  1  0
 40 39  1  0
 41 40  2  0
 42 41  1  0
 43 42  2  0
A    1
N1
A    2
C1
A    3
C2
A    4
O1
A    5
N2
A    6
C3
A    7
C4
A    8
O3
A    9
N3
A   10
C5
A   11
C6
A   12
O2
A   13
C7
A   14
C9
A   15
C8
A   16
N4
A   17
C10
A   18
C11
A   19
C12
A   20
C13
A   21
C14
A   22
C15
A   23
C16
A   24
C17
A   25
C18
A   26
C19
A   27
C20
A   28
C21
A   29
C22
A   30
N5
A   31
C23
A   32
N6
A   33
N7
A   34
S
A   35
O4
A   36
O5
A   37
C24
A   38
C25
A   39
C26
A   40
C27
A   41
C28
A   42
C29
A   43
C30
M  END
>  <Id>  (71) 
1W12_SL1_U_1245

>  <ChainId>  (71) 
U

>  <AsymId>  (71) 
B

>  <SeqNum>  (71) 
1245

>  <Name>  (71) 
N-((1S)-4-{[AMINO(IMINO)METHYL]AMINO}-1-FORMYLBUTYL)-2-{(3R)-3-[(BENZYLSULFONYL)AMINO]-2-OXO-5-PHENYL-2,3-DIHYDRO-1H-1,4-BENZODIAZEPIN-1-YL}ACETAMIDE

>  <SystematicName>  (71) 
N-[(2S)-5-carbamimidamido-1-oxo-pentan-2-yl]-2-[(3R)-2-oxo-5-phenyl-3-(phenylmethylsulfonylamino)-3H-1,4-benzodiazepin-1-yl]ethanamide

>  <Synonyms>  (71) 


>  <Type>  (71) 
NON-POLYMER

>  <Formula>  (71) 
C30 H33 N7 O5 S

>  <ObservedFormula>  (71) 
C30 S N7 O5

>  <MolecularWeight>  (71) 
603.692

>  <ModifiedDate>  (71) 
2011-06-04

>  <Parent>  (71) 


>  <OneLetterCode>  (71) 


>  <SubcomponentList>  (71) 


>  <AmbiguousFlag>  (71) 
N

>  <InsertionCode>  (71) 


>  <InstanceId>  (71) 
1W12_SL1_U_1245

>  <ChemCompId>  (71) 
SL1

>  <PdbId>  (71) 
1W12

>  <ResidueNumber>  (71) 
1245

>  <InChI>  (71) 
InChI=1S/C30H33N7O5S/c31-30(32)33-17-9-14-23(19-38)34-26(39)18-37-25-16-8-7-15-24(25)27(22-12-5-2-6-13-22)35-28(29(37)40)36-43(41,42)20-21-10-3-1-4-11-21/h1-8,10-13,15-16,19,23,28,36H,9,14,17-18,20H2,(H,34,39)(H4,31,32,33)/t23-,28+/m0/s1

>  <InChIKey>  (71) 
JVZSQVNCJHGRDE-NEKDWFFYSA-N

>  <SMILES>  (71) 
c1ccc(cc1)CS(=O)(=O)N[C@@H]2C(=O)N(c3ccccc3C(=N2)c4ccccc4)CC(=O)N[C@@H](CCCNC(=N)N)C=O

>  <MissingHeavyAtoms>  (71) 
0

>  <Model>  (71) 
1

>  <AltIds>  (71) 


>  <pKI>  (71) 
7.85

>  <ChemblID>  (71) 
-

>  <standardized_canonical_smiles>  (71) 
N=C(N)NCCC[C@@H](C=O)NC(=O)CN1C(=O)[C@@H](NS(=O)(=O)Cc2ccccc2)N=C(c2ccccc2)c2ccccc21

$$$$
5ZA9_50I_U_301
     RDKit          3D

 29 32  0  0  0  0  0  0  0  0999 V2000
   24.2760   14.4870  -12.0310 C   0  0  0  0  0  0  0  0  0  0  0  0
   25.3520   15.5040  -12.4020 C   0  0  0  0  0  0  0  0  0  0  0  0
   26.7390   13.4440  -13.0270 C   0  0  0  0  0  0  0  0  0  0  0  0
   28.9200   14.9530  -14.0960 C   0  0  0  0  0  0  0  0  0  0  0  0
   27.7680   15.3980  -11.9340 C   0  0  0  0  0  0  0  0  0  0  0  0
   28.8630   16.4870  -10.1780 C   0  0  0  0  0  0  0  0  0  0  0  0
   31.2340   17.2460  -10.3980 C   0  0  0  0  0  0  0  0  0  0  0  0
   27.7590   15.8930  -10.6780 N   0  0  0  0  0  0  0  0  0  0  0  0
   25.8650   13.4140  -14.2760 C   0  0  0  0  0  0  0  0  0  0  0  0
   24.4790   12.8690  -13.9510 C   0  0  0  0  0  0  0  0  0  0  0  0
   28.8680   14.7140  -16.3250 C   0  0  0  0  0  0  0  0  0  0  0  0
   28.7980   15.7020  -15.2820 C   0  0  0  0  0  0  0  0  0  0  0  0
   29.1220   12.3180  -16.4960 C   0  0  0  0  0  0  0  0  0  0  0  0
   29.0610   12.4350  -17.8820 C   0  0  0  0  0  0  0  0  0  0  0  0
   28.9040   13.6860  -18.4790 C   0  0  0  0  0  0  0  0  0  0  0  0
   28.8050   14.8410  -17.7060 C   0  0  0  0  0  0  0  0  0  0  0  0
   31.4380   17.2090   -9.1950 O   0  0  0  0  0  0  0  0  0  0  0  0
   32.2130   17.6370  -11.3980 N   0  0  0  0  0  0  0  0  0  0  0  0
   33.3920   17.8320  -11.0500 C   0  0  0  0  0  0  0  0  0  0  0  0
   34.0880   18.3250  -11.9230 N   0  0  0  0  0  0  0  0  0  0  0  0
   33.9630   17.5030   -9.8400 N   0  0  0  0  0  0  0  0  0  0  0  0
   30.0050   16.5870  -10.9530 C   0  0  0  0  0  0  0  0  0  0  0  0
   30.0140   16.0920  -12.2090 N   0  0  0  0  0  0  0  0  0  0  0  0
   28.8540   16.9830   -8.9180 N   0  0  0  0  0  0  0  0  0  0  0  0
   26.6210   14.7840  -12.4530 N   0  0  0  0  0  0  0  0  0  0  0  0
   23.6080   13.9280  -13.2830 C   0  0  0  0  0  0  0  0  0  0  0  0
   28.9100   15.4990  -12.7090 C   0  0  0  0  0  0  0  0  0  0  0  0
   29.0210   13.4850  -15.7550 C   0  0  0  0  0  0  0  0  0  0  0  0
   29.0530   13.6210  -14.4440 O   0  0  0  0  0  0  0  0  0  0  0  0
  2  1  1  0
 26  1  1  0
 25  2  1  0
  9  3  1  0
 25  3  1  0
 12  4  2  0
 27  4  1  0
 29  4  1  0
  8  5  1  0
 25  5  1  0
 27  5  2  0
  8  6  2  0
 22  6  1  0
 24  6  1  0
 17  7  2  0
 18  7  1  0
 22  7  1  0
 10  9  1  0
 26 10  1  0
 12 11  1  0
 16 11  2  0
 28 11  1  0
 14 13  1  0
 28 13  2  0
 15 14  2  0
 16 15  1  0
 19 18  1  0
 20 19  2  0
 21 19  1  0
 23 22  2  0
 27 23  1  0
 29 28  1  0
A    1
C4
A    2
C5
A    3
C6
A    4
C11
A    5
C7
A    6
C10
A    7
C12
A    8
N3
A    9
C1
A   10
C2
A   11
C15
A   12
C16
A   13
C17
A   14
C18
A   15
C19
A   16
C20
A   17
O1
A   18
N5
A   19
C13
A   20
N7
A   21
N6
A   22
C9
A   23
N2
A   24
N4
A   25
N1
A   26
C3
A   27
C8
A   28
C14
A   29
O2
M  END
>  <Id>  (72) 
5ZA9_50I_U_301

>  <ChainId>  (72) 
U

>  <AsymId>  (72) 
B

>  <SeqNum>  (72) 
301

>  <Name>  (72) 
3-azanyl-5-(azepan-1-yl)-6-(1-benzofuran-2-yl)-Ncarbamimidoyl-pyrazine-2-carboxamide

>  <SystematicName>  (72) 
3-azanyl-5-(azepan-1-yl)-6-(1-benzofuran-2-yl)-~{N}-carbamimidoyl-pyrazine-2-carboxamide

>  <Synonyms>  (72) 


>  <Type>  (72) 
NON-POLYMER

>  <Formula>  (72) 
C20 H23 N7 O2

>  <ObservedFormula>  (72) 
C20 N7 O2

>  <MolecularWeight>  (72) 
393.442

>  <ModifiedDate>  (72) 
2018-12-14

>  <Parent>  (72) 


>  <OneLetterCode>  (72) 


>  <SubcomponentList>  (72) 


>  <AmbiguousFlag>  (72) 
N

>  <InsertionCode>  (72) 


>  <InstanceId>  (72) 
5ZA9_50I_U_301

>  <ChemCompId>  (72) 
50I

>  <PdbId>  (72) 
5ZA9

>  <ResidueNumber>  (72) 
301

>  <InChI>  (72) 
InChI=1S/C20H23N7O2/c21-17-16(19(28)26-20(22)23)24-15(14-11-12-7-3-4-8-13(12)29-14)18(25-17)27-9-5-1-2-6-10-27/h3-4,7-8,11H,1-2,5-6,9-10H2,(H2,21,25)(H4,22,23,26,28)

>  <InChIKey>  (72) 
FSPGYSVEHLETQR-UHFFFAOYSA-N

>  <SMILES>  (72) 
[H]/N=C(/N)\NC(=O)c1c(nc(c(n1)c2cc3ccccc3o2)N4CCCCCC4)N

>  <MissingHeavyAtoms>  (72) 
0

>  <Model>  (72) 
1

>  <AltIds>  (72) 


>  <pKI>  (72) 
6.74

>  <ChemblID>  (72) 
-

>  <standardized_canonical_smiles>  (72) 
N=C(N)NC(=O)c1nc(-c2cc3ccccc3o2)c(N2CCCCCC2)nc1N

$$$$
5ZC5_09I_U_301
     RDKit          3D

 30 33  0  0  0  0  0  0  0  0999 V2000
   -2.2560  -32.8620  -31.9880 C   0  0  0  0  0  0  0  0  0  0  0  0
   -1.5530  -32.6110  -28.4000 C   0  0  0  0  0  0  0  0  0  0  0  0
   -4.3240  -31.5930  -31.8980 C   0  0  0  0  0  0  0  0  0  0  0  0
   -2.1040  -32.7060  -30.6090 C   0  0  0  0  0  0  0  0  0  0  0  0
   -3.0590  -32.0050  -29.9210 C   0  0  0  0  0  0  0  0  0  0  0  0
    1.8390  -28.6920  -27.7530 C   0  0  0  0  0  0  0  0  0  0  0  0
   -0.1080  -29.2920  -25.5870 C   0  0  0  0  0  0  0  0  0  0  0  0
   -1.0310  -32.7210  -27.0250 C   0  0  0  0  0  0  0  0  0  0  0  0
   -1.4700  -37.8430  -25.7890 C   0  0  0  0  0  0  0  0  0  0  0  0
   -0.4030  -29.7890  -27.9850 C   0  0  0  0  0  0  0  0  0  0  0  0
   -3.3730  -32.3080  -32.6260 C   0  0  0  0  0  0  0  0  0  0  0  0
   -0.9370  -35.7010  -24.8730 C   0  0  0  0  0  0  0  0  0  0  0  0
   -1.1270  -33.1170  -29.6260 C   0  0  0  0  0  0  0  0  0  0  0  0
    1.0350  -29.7720  -28.4780 C   0  0  0  0  0  0  0  0  0  0  0  0
   -4.1740  -31.4300  -30.5200 C   0  0  0  0  0  0  0  0  0  0  0  0
   -1.3320  -33.5430  -32.6870 F   0  0  0  0  0  0  0  0  0  0  0  0
   -2.7430  -31.9660  -28.6470 O   0  0  0  0  0  0  0  0  0  0  0  0
   -0.5710  -31.6720  -26.2170 C   0  0  0  0  0  0  0  0  0  0  0  0
   -0.3930  -30.3100  -26.6060 N   0  0  0  0  0  0  0  0  0  0  0  0
    2.3880  -29.2070  -26.4190 C   0  0  0  0  0  0  0  0  0  0  0  0
    1.3900  -29.3080  -25.2560 C   0  0  0  0  0  0  0  0  0  0  0  0
   -0.2120  -32.0170  -24.9390 N   0  0  0  0  0  0  0  0  0  0  0  0
   -0.3150  -33.2750  -24.4550 C   0  0  0  0  0  0  0  0  0  0  0  0
    0.0550  -33.5460  -23.1800 N   0  0  0  0  0  0  0  0  0  0  0  0
   -0.8090  -34.2760  -25.2790 C   0  0  0  0  0  0  0  0  0  0  0  0
   -1.1490  -33.9730  -26.5450 N   0  0  0  0  0  0  0  0  0  0  0  0
   -0.8090  -36.0180  -23.7030 O   0  0  0  0  0  0  0  0  0  0  0  0
   -1.0920  -36.5760  -25.8860 N   0  0  0  0  0  0  0  0  0  0  0  0
   -1.5350  -38.5710  -26.9050 N   0  0  0  0  0  0  0  0  0  0  0  0
   -1.7670  -38.3800  -24.6090 N   0  0  0  0  0  0  0  0  0  0  0  0
  4  1  2  0
 11  1  1  0
 16  1  1  0
  8  2  1  0
 13  2  2  0
 17  2  1  0
 11  3  2  0
 15  3  1  0
  5  4  1  0
 13  4  1  0
 15  5  2  0
 17  5  1  0
 14  6  1  0
 20  6  1  0
 19  7  1  0
 21  7  1  0
 18  8  1  0
 26  8  2  0
 28  9  1  0
 29  9  2  0
 30  9  1  0
 14 10  1  0
 19 10  1  0
 25 12  1  0
 27 12  2  0
 28 12  1  0
 19 18  1  0
 22 18  2  0
 21 20  1  0
 23 22  1  0
 24 23  1  0
 25 23  2  0
 26 25  1  0
A    1
C5
A    2
C8
A    3
C3
A    4
C6
A    5
C1
A    6
C17
A    7
C14
A    8
C9
A    9
C20
A   10
C19
A   11
C4
A   12
C13
A   13
C7
A   14
C18
A   15
C2
A   16
F1
A   17
O1
A   18
C12
A   19
N3
A   20
C16
A   21
C15
A   22
N2
A   23
C11
A   24
N4
A   25
C10
A   26
N1
A   27
O2
A   28
N5
A   29
N7
A   30
N6
M  END
>  <Id>  (73) 
5ZC5_09I_U_301

>  <ChainId>  (73) 
U

>  <AsymId>  (73) 
B

>  <SeqNum>  (73) 
301

>  <Name>  (73) 
3-azanyl-5-(azepan-1-yl)-N-carbamimidoyl-6-(4-fluoranyl-1-benzofuran-2-yl)pyrazine-2-carboxamide

>  <SystematicName>  (73) 
3-azanyl-5-(azepan-1-yl)-~{N}-carbamimidoyl-6-(4-fluoranyl-1-benzofuran-2-yl)pyrazine-2-carboxamide

>  <Synonyms>  (73) 


>  <Type>  (73) 
NON-POLYMER

>  <Formula>  (73) 
C20 H22 F N7 O2

>  <ObservedFormula>  (73) 
C20 F N7 O2

>  <MolecularWeight>  (73) 
411.433

>  <ModifiedDate>  (73) 
2018-12-14

>  <Parent>  (73) 


>  <OneLetterCode>  (73) 


>  <SubcomponentList>  (73) 


>  <AmbiguousFlag>  (73) 
N

>  <InsertionCode>  (73) 


>  <InstanceId>  (73) 
5ZC5_09I_U_301

>  <ChemCompId>  (73) 
09I

>  <PdbId>  (73) 
5ZC5

>  <ResidueNumber>  (73) 
301

>  <InChI>  (73) 
InChI=1S/C20H22FN7O2/c21-12-6-5-7-13-11(12)10-14(30-13)15-18(28-8-3-1-2-4-9-28)26-17(22)16(25-15)19(29)27-20(23)24/h5-7,10H,1-4,8-9H2,(H2,22,26)(H4,23,24,27,29)

>  <InChIKey>  (73) 
ITMHCPYYAUUUAC-UHFFFAOYSA-N

>  <SMILES>  (73) 
[H]/N=C(/N)\NC(=O)c1c(nc(c(n1)c2cc3c(o2)cccc3F)N4CCCCCC4)N

>  <MissingHeavyAtoms>  (73) 
0

>  <Model>  (73) 
1

>  <AltIds>  (73) 


>  <pKI>  (73) 
7.06

>  <ChemblID>  (73) 
-

>  <standardized_canonical_smiles>  (73) 
N=C(N)NC(=O)c1nc(-c2cc3c(F)cccc3o2)c(N2CCCCCC2)nc1N

$$$$
5ZAE_EAU_U_301
     RDKit          3D

 25 27  0  0  0  0  0  0  0  0999 V2000
  -27.4490  -16.1920   -3.4480 N   0  0  0  0  0  0  0  0  0  0  0  0
  -27.0440  -16.3170   -2.1500 C   0  0  0  0  0  0  0  0  0  0  0  0
  -28.3800  -17.2980    1.1010 O   0  0  0  0  0  0  0  0  0  0  0  0
  -28.8410  -16.7080   -5.2470 N   0  0  0  0  0  0  0  0  0  0  0  0
  -29.1710  -17.7600   -3.1500 C   0  0  0  0  0  0  0  0  0  0  0  0
  -31.0230  -19.1330   -2.5920 N   0  0  0  0  0  0  0  0  0  0  0  0
  -30.3380  -18.5740   -3.5980 C   0  0  0  0  0  0  0  0  0  0  0  0
  -25.4150  -15.4350   -0.3850 C   0  0  0  0  0  0  0  0  0  0  0  0
  -26.1290  -14.2570    0.2610 C   0  0  0  0  0  0  0  0  0  0  0  0
  -25.5910  -12.9520   -0.3210 C   0  0  0  0  0  0  0  0  0  0  0  0
  -26.3590  -12.5320   -1.5690 C   0  0  0  0  0  0  0  0  0  0  0  0
  -30.6430  -18.6790   -4.7650 O   0  0  0  0  0  0  0  0  0  0  0  0
  -31.8820  -20.1280   -2.7370 C   0  0  0  0  0  0  0  0  0  0  0  0
  -32.4990  -20.5730   -1.6340 N   0  0  0  0  0  0  0  0  0  0  0  0
  -32.1120  -20.6540   -3.9470 N   0  0  0  0  0  0  0  0  0  0  0  0
  -28.4810  -16.8850   -3.9540 C   0  0  0  0  0  0  0  0  0  0  0  0
  -28.8120  -17.9070   -1.8640 N   0  0  0  0  0  0  0  0  0  0  0  0
  -27.7750  -17.2200   -1.3520 C   0  0  0  0  0  0  0  0  0  0  0  0
  -27.5400  -17.5730    0.0610 C   0  0  0  0  0  0  0  0  0  0  0  0
  -26.4660  -18.3250    0.5290 C   0  0  0  0  0  0  0  0  0  0  0  0
  -26.6270  -18.4590    1.8920 C   0  0  0  0  0  0  0  0  0  0  0  0
  -27.8000  -17.8280    2.2420 C   0  0  0  0  0  0  0  0  0  0  0  0
  -25.9550  -15.5100   -1.7410 N   0  0  0  0  0  0  0  0  0  0  0  0
  -25.2740  -14.6320   -2.6780 C   0  0  0  0  0  0  0  0  0  0  0  0
  -26.0270  -13.3120   -2.8490 C   0  0  0  0  0  0  0  0  0  0  0  0
  2  1  2  0
 16  1  1  0
 18  2  1  0
 23  2  1  0
 19  3  1  0
 22  3  1  0
 16  4  1  0
  7  5  1  0
 16  5  2  0
 17  5  1  0
  7  6  1  0
 13  6  1  0
 12  7  2  0
  9  8  1  0
 23  8  1  0
 10  9  1  0
 11 10  1  0
 25 11  1  0
 14 13  1  0
 15 13  2  0
 18 17  2  0
 19 18  1  0
 20 19  2  0
 21 20  1  0
 22 21  2  0
 24 23  1  0
 25 24  1  0
A    1
N1
A    2
C2
A    3
O2
A    4
N3
A    5
C4
A    6
N5
A    7
C6
A    8
C7
A    9
C8
A   10
C9
A   11
C10
A   12
O1
A   13
C13
A   14
N7
A   15
N6
A   16
C3
A   17
N2
A   18
C1
A   19
C5
A   20
C14
A   21
C15
A   22
C16
A   23
N4
A   24
C12
A   25
C11
M  END
>  <Id>  (74) 
5ZAE_EAU_U_301

>  <ChainId>  (74) 
U

>  <AsymId>  (74) 
B

>  <SeqNum>  (74) 
301

>  <Name>  (74) 
3-azanyl-5-(azepan-1-yl)-N-carbamimidoyl-6-(furan-2-yl)pyrazine-2-carboxamide

>  <SystematicName>  (74) 
3-azanyl-5-(azepan-1-yl)-~{N}-carbamimidoyl-6-(furan-2-yl)pyrazine-2-carboxamide

>  <Synonyms>  (74) 


>  <Type>  (74) 
NON-POLYMER

>  <Formula>  (74) 
C16 H21 N7 O2

>  <ObservedFormula>  (74) 
C16 N7 O2

>  <MolecularWeight>  (74) 
343.384

>  <ModifiedDate>  (74) 
2018-12-14

>  <Parent>  (74) 


>  <OneLetterCode>  (74) 


>  <SubcomponentList>  (74) 


>  <AmbiguousFlag>  (74) 
N

>  <InsertionCode>  (74) 


>  <InstanceId>  (74) 
5ZAE_EAU_U_301

>  <ChemCompId>  (74) 
EAU

>  <PdbId>  (74) 
5ZAE

>  <ResidueNumber>  (74) 
301

>  <InChI>  (74) 
InChI=1S/C16H21N7O2/c17-13-12(15(24)22-16(18)19)20-11(10-6-5-9-25-10)14(21-13)23-7-3-1-2-4-8-23/h5-6,9H,1-4,7-8H2,(H2,17,21)(H4,18,19,22,24)

>  <InChIKey>  (74) 
XDWIBAHBFLHWJO-UHFFFAOYSA-N

>  <SMILES>  (74) 
[H]/N=C(/N)\NC(=O)c1c(nc(c(n1)c2ccco2)N3CCCCCC3)N

>  <MissingHeavyAtoms>  (74) 
0

>  <Model>  (74) 
1

>  <AltIds>  (74) 


>  <pKI>  (74) 
6.81

>  <ChemblID>  (74) 
-

>  <standardized_canonical_smiles>  (74) 
N=C(N)NC(=O)c1nc(-c2ccco2)c(N2CCCCCC2)nc1N

$$$$
5ZAF_28I_U_301
     RDKit          3D

 25 27  0  0  0  0  0  0  0  0999 V2000
   -0.4850   31.6850   26.4990 C   0  0  0  0  0  0  0  0  0  0  0  0
   -0.9980   32.7240   27.2850 C   0  0  0  0  0  0  0  0  0  0  0  0
   -1.7390   38.3060   24.6030 N   0  0  0  0  0  0  0  0  0  0  0  0
   -1.6390   37.7510   25.8020 C   0  0  0  0  0  0  0  0  0  0  0  0
   -1.5630   33.1070   30.8940 C   0  0  0  0  0  0  0  0  0  0  0  0
   -2.3460   31.8010   29.2770 C   0  0  0  0  0  0  0  0  0  0  0  0
   -0.3780   29.2070   26.1790 C   0  0  0  0  0  0  0  0  0  0  0  0
    1.0100   28.6140   25.9060 C   0  0  0  0  0  0  0  0  0  0  0  0
    1.7990   28.0880   28.2630 C   0  0  0  0  0  0  0  0  0  0  0  0
   -0.1400   33.3680   23.3120 N   0  0  0  0  0  0  0  0  0  0  0  0
   -0.4350   33.1710   24.6270 C   0  0  0  0  0  0  0  0  0  0  0  0
   -1.2230   35.8010   23.7520 O   0  0  0  0  0  0  0  0  0  0  0  0
   -1.2320   35.5600   24.9480 C   0  0  0  0  0  0  0  0  0  0  0  0
   -1.3890   36.4550   25.9320 N   0  0  0  0  0  0  0  0  0  0  0  0
   -1.7620   38.4400   26.8500 N   0  0  0  0  0  0  0  0  0  0  0  0
   -0.9570   34.1780   25.4270 C   0  0  0  0  0  0  0  0  0  0  0  0
   -0.2060   31.9600   25.1870 N   0  0  0  0  0  0  0  0  0  0  0  0
   -1.2290   33.9290   26.7270 N   0  0  0  0  0  0  0  0  0  0  0  0
   -1.3970   32.6460   28.7170 C   0  0  0  0  0  0  0  0  0  0  0  0
   -0.9330   33.4580   29.7180 C   0  0  0  0  0  0  0  0  0  0  0  0
   -2.4390   32.0840   30.6200 O   0  0  0  0  0  0  0  0  0  0  0  0
   -0.1450   30.4030   26.9880 N   0  0  0  0  0  0  0  0  0  0  0  0
    0.6330   30.3260   28.2510 C   0  0  0  0  0  0  0  0  0  0  0  0
    0.6890   28.9330   28.8770 C   0  0  0  0  0  0  0  0  0  0  0  0
    1.3780   27.5230   26.9120 C   0  0  0  0  0  0  0  0  0  0  0  0
  2  1  1  0
 17  1  2  0
 22  1  1  0
 18  2  2  0
 19  2  1  0
  4  3  2  0
 14  4  1  0
 15  4  1  0
 20  5  2  0
 21  5  1  0
 19  6  2  0
 21  6  1  0
  8  7  1  0
 22  7  1  0
 25  8  1  0
 24  9  1  0
 25  9  1  0
 11 10  1  0
 16 11  2  0
 17 11  1  0
 13 12  2  0
 14 13  1  0
 16 13  1  0
 18 16  1  0
 20 19  1  0
 23 22  1  0
 24 23  1  0
A    1
C1
A    2
C2
A    3
N6
A    4
C7
A    5
C9
A    6
C10
A    7
C11
A    8
C12
A    9
C14
A   10
N3
A   11
C4
A   12
O1
A   13
C6
A   14
N5
A   15
N7
A   16
C3
A   17
N1
A   18
N2
A   19
C5
A   20
C8
A   21
O2
A   22
N4
A   23
C16
A   24
C15
A   25
C13
M  END
>  <Id>  (75) 
5ZAF_28I_U_301

>  <ChainId>  (75) 
U

>  <AsymId>  (75) 
B

>  <SeqNum>  (75) 
301

>  <Name>  (75) 
3-azanyl-5-(azepan-1-yl)-N-carbamimidoyl-6-(furan-3-yl)pyrazine-2-carboxamide

>  <SystematicName>  (75) 
3-azanyl-5-(azepan-1-yl)-~{N}-carbamimidoyl-6-(furan-3-yl)pyrazine-2-carboxamide

>  <Synonyms>  (75) 


>  <Type>  (75) 
NON-POLYMER

>  <Formula>  (75) 
C16 H21 N7 O2

>  <ObservedFormula>  (75) 
C16 N7 O2

>  <MolecularWeight>  (75) 
343.384

>  <ModifiedDate>  (75) 
2018-12-14

>  <Parent>  (75) 


>  <OneLetterCode>  (75) 


>  <SubcomponentList>  (75) 


>  <AmbiguousFlag>  (75) 
N

>  <InsertionCode>  (75) 


>  <InstanceId>  (75) 
5ZAF_28I_U_301

>  <ChemCompId>  (75) 
28I

>  <PdbId>  (75) 
5ZAF

>  <ResidueNumber>  (75) 
301

>  <InChI>  (75) 
InChI=1S/C16H21N7O2/c17-13-12(15(24)22-16(18)19)20-11(10-5-8-25-9-10)14(21-13)23-6-3-1-2-4-7-23/h5,8-9H,1-4,6-7H2,(H2,17,21)(H4,18,19,22,24)

>  <InChIKey>  (75) 
XTKNHHMMUHAGKV-UHFFFAOYSA-N

>  <SMILES>  (75) 
[H]/N=C(\N)/NC(=O)c1c(nc(c(n1)c2ccoc2)N3CCCCCC3)N

>  <MissingHeavyAtoms>  (75) 
0

>  <Model>  (75) 
1

>  <AltIds>  (75) 


>  <pKI>  (75) 
6.78

>  <ChemblID>  (75) 
-

>  <standardized_canonical_smiles>  (75) 
N=C(N)NC(=O)c1nc(-c2ccoc2)c(N2CCCCCC2)nc1N

$$$$
5ZAG_94I_U_301
     RDKit          3D

 26 28  0  0  0  0  0  0  0  0999 V2000
  -28.0150  -17.0720   -1.0820 C   0  0  0  0  0  0  0  0  0  0  0  0
  -26.4960  -17.5270    0.8510 C   0  0  0  0  0  0  0  0  0  0  0  0
  -27.3110  -18.0450    2.9670 C   0  0  0  0  0  0  0  0  0  0  0  0
  -28.5310  -16.8410   -3.7830 C   0  0  0  0  0  0  0  0  0  0  0  0
  -26.9320  -14.3100   -0.2730 C   0  0  0  0  0  0  0  0  0  0  0  0
  -25.8220  -13.6110    0.5230 C   0  0  0  0  0  0  0  0  0  0  0  0
  -25.0510  -12.5130   -0.2160 C   0  0  0  0  0  0  0  0  0  0  0  0
  -25.1050  -14.9660   -1.9510 C   0  0  0  0  0  0  0  0  0  0  0  0
  -25.1650  -13.5860   -2.6050 C   0  0  0  0  0  0  0  0  0  0  0  0
  -31.9270  -20.1830   -2.7070 C   0  0  0  0  0  0  0  0  0  0  0  0
  -27.6170  -16.0390   -3.1780 N   0  0  0  0  0  0  0  0  0  0  0  0
  -30.9440  -19.3040   -2.5730 N   0  0  0  0  0  0  0  0  0  0  0  0
  -32.4860  -20.6640   -1.6120 N   0  0  0  0  0  0  0  0  0  0  0  0
  -30.4340  -18.7960   -4.7340 O   0  0  0  0  0  0  0  0  0  0  0  0
  -30.2390  -18.7020   -3.5340 C   0  0  0  0  0  0  0  0  0  0  0  0
  -32.3520  -20.5620   -3.8980 N   0  0  0  0  0  0  0  0  0  0  0  0
  -29.1990  -17.7730   -3.0090 C   0  0  0  0  0  0  0  0  0  0  0  0
  -28.9120  -17.8740   -1.6930 N   0  0  0  0  0  0  0  0  0  0  0  0
  -28.7790  -16.6980   -5.1120 N   0  0  0  0  0  0  0  0  0  0  0  0
  -27.3160  -16.1380   -1.8550 C   0  0  0  0  0  0  0  0  0  0  0  0
  -27.8010  -17.3740    0.3670 C   0  0  0  0  0  0  0  0  0  0  0  0
  -26.2720  -17.8470    2.1380 N   0  0  0  0  0  0  0  0  0  0  0  0
  -28.5790  -17.9330    2.5260 N   0  0  0  0  0  0  0  0  0  0  0  0
  -28.8520  -17.6210    1.2490 C   0  0  0  0  0  0  0  0  0  0  0  0
  -26.4100  -15.1940   -1.3460 N   0  0  0  0  0  0  0  0  0  0  0  0
  -25.3650  -12.3510   -1.7030 C   0  0  0  0  0  0  0  0  0  0  0  0
 18  1  1  0
 20  1  2  0
 21  1  1  0
 21  2  2  0
 22  2  1  0
 22  3  2  0
 23  3  1  0
 11  4  2  0
 17  4  1  0
 19  4  1  0
  6  5  1  0
 25  5  1  0
  7  6  1  0
 26  7  1  0
  9  8  1  0
 25  8  1  0
 26  9  1  0
 12 10  1  0
 13 10  1  0
 16 10  2  0
 20 11  1  0
 15 12  1  0
 15 14  2  0
 17 15  1  0
 18 17  2  0
 25 20  1  0
 24 21  1  0
 24 23  2  0
A    1
C5
A    2
C3
A    3
C2
A    4
C7
A    5
C14
A    6
C13
A    7
C12
A    8
C9
A    9
C10
A   10
C16
A   11
N4
A   12
N6
A   13
N8
A   14
O1
A   15
C15
A   16
N7
A   17
C6
A   18
N3
A   19
N9
A   20
C8
A   21
C4
A   22
N2
A   23
N1
A   24
C1
A   25
N5
A   26
C11
M  END
>  <Id>  (76) 
5ZAG_94I_U_301

>  <ChainId>  (76) 
U

>  <AsymId>  (76) 
B

>  <SeqNum>  (76) 
301

>  <Name>  (76) 
3-azanyl-5-(azepan-1-yl)-N-carbamimidoyl-6-pyrimidin-5-yl-pyrazine-2-carboxamide

>  <SystematicName>  (76) 
3-azanyl-5-(azepan-1-yl)-~{N}-carbamimidoyl-6-pyrimidin-5-yl-pyrazine-2-carboxamide

>  <Synonyms>  (76) 


>  <Type>  (76) 
NON-POLYMER

>  <Formula>  (76) 
C16 H21 N9 O

>  <ObservedFormula>  (76) 
C16 N9 O

>  <MolecularWeight>  (76) 
355.398

>  <ModifiedDate>  (76) 
2018-12-14

>  <Parent>  (76) 


>  <OneLetterCode>  (76) 


>  <SubcomponentList>  (76) 


>  <AmbiguousFlag>  (76) 
N

>  <InsertionCode>  (76) 


>  <InstanceId>  (76) 
5ZAG_94I_U_301

>  <ChemCompId>  (76) 
94I

>  <PdbId>  (76) 
5ZAG

>  <ResidueNumber>  (76) 
301

>  <InChI>  (76) 
InChI=1S/C16H21N9O/c17-13-12(15(26)24-16(18)19)22-11(10-7-20-9-21-8-10)14(23-13)25-5-3-1-2-4-6-25/h7-9H,1-6H2,(H2,17,23)(H4,18,19,24,26)

>  <InChIKey>  (76) 
BIKUTIAECDVFLJ-UHFFFAOYSA-N

>  <SMILES>  (76) 
[H]/N=C(\N)/NC(=O)c1c(nc(c(n1)c2cncnc2)N3CCCCCC3)N

>  <MissingHeavyAtoms>  (76) 
0

>  <Model>  (76) 
1

>  <AltIds>  (76) 


>  <pKI>  (76) 
6.97

>  <ChemblID>  (76) 
-

>  <standardized_canonical_smiles>  (76) 
N=C(N)NC(=O)c1nc(-c2cncnc2)c(N2CCCCCC2)nc1N

$$$$
5ZA7_HMX_U_301
     RDKit          3D

 21 22  0  0  0  0  0  0  0  0999 V2000
  -28.0790  -16.9650   -1.6940 C   0  0  0  0  0  0  0  0  0  0  0  0
  -27.6890  -16.0440   -3.8200 N   0  0  0  0  0  0  0  0  0  0  0  0
  -27.3790  -16.0810   -2.4990 C   0  0  0  0  0  0  0  0  0  0  0  0
  -29.0150  -17.7610   -2.1930 N   0  0  0  0  0  0  0  0  0  0  0  0
  -28.6300  -16.8560   -4.3460 C   0  0  0  0  0  0  0  0  0  0  0  0
  -29.3260  -17.7060   -3.5030 C   0  0  0  0  0  0  0  0  0  0  0  0
  -30.3760  -18.6580   -3.9390 C   0  0  0  0  0  0  0  0  0  0  0  0
  -26.2510  -14.9130   -0.5770 C   0  0  0  0  0  0  0  0  0  0  0  0
  -25.9090  -13.4460   -0.3290 C   0  0  0  0  0  0  0  0  0  0  0  0
  -27.0010  -12.5110   -0.8330 C   0  0  0  0  0  0  0  0  0  0  0  0
  -27.2480  -12.6040   -2.3370 C   0  0  0  0  0  0  0  0  0  0  0  0
  -26.0440  -13.0530   -3.1730 C   0  0  0  0  0  0  0  0  0  0  0  0
  -25.5550  -14.4830   -2.9650 C   0  0  0  0  0  0  0  0  0  0  0  0
  -32.0460  -20.1360   -3.0790 C   0  0  0  0  0  0  0  0  0  0  0  0
  -30.5200  -18.8660   -5.1340 O   0  0  0  0  0  0  0  0  0  0  0  0
  -31.0750  -19.2330   -2.9420 N   0  0  0  0  0  0  0  0  0  0  0  0
  -32.6620  -20.5940   -1.9890 N   0  0  0  0  0  0  0  0  0  0  0  0
  -32.4030  -20.5850   -4.2770 N   0  0  0  0  0  0  0  0  0  0  0  0
  -27.8050  -17.1750    0.0560 Cl  0  0  0  0  0  0  0  0  0  0  0  0
  -28.8880  -16.7610   -5.6850 N   0  0  0  0  0  0  0  0  0  0  0  0
  -26.4050  -15.1890   -2.0130 N   0  0  0  0  0  0  0  0  0  0  0  0
  3  1  2  0
  4  1  1  0
 19  1  1  0
  3  2  1  0
  5  2  2  0
 21  3  1  0
  6  4  2  0
  6  5  1  0
 20  5  1  0
  7  6  1  0
 15  7  2  0
 16  7  1  0
  9  8  1  0
 21  8  1  0
 10  9  1  0
 11 10  1  0
 12 11  1  0
 13 12  1  0
 21 13  1  0
 16 14  2  3
 17 14  1  0
 18 14  1  0
A    1
C1
A    2
N1
A    3
C2
A    4
N2
A    5
C3
A    6
C4
A    7
C5
A    8
C6
A    9
C7
A   10
C8
A   11
C9
A   12
C10
A   13
C11
A   14
C12
A   15
O1
A   16
N5
A   17
N7
A   18
N6
A   19
CL1
A   20
N3
A   21
N4
M  END
>  <Id>  (77) 
5ZA7_HMX_U_301

>  <ChainId>  (77) 
U

>  <AsymId>  (77) 
B

>  <SeqNum>  (77) 
301

>  <Name>  (77) 
3-azanyl-5-(azepan-1-yl)-N-[bis(azanyl)methylidene]-6-chloranyl-pyrazine-2-carboxamide

>  <SystematicName>  (77) 
3-azanyl-5-(azepan-1-yl)-~{N}-[bis(azanyl)methylidene]-6-chloranyl-pyrazine-2-carboxamide

>  <Synonyms>  (77) 
HMA

>  <Type>  (77) 
NON-POLYMER

>  <Formula>  (77) 
C12 H18 Cl N7 O

>  <ObservedFormula>  (77) 
C12 Cl N7 O

>  <MolecularWeight>  (77) 
311.771

>  <ModifiedDate>  (77) 
2018-12-14

>  <Parent>  (77) 


>  <OneLetterCode>  (77) 


>  <SubcomponentList>  (77) 


>  <AmbiguousFlag>  (77) 
N

>  <InsertionCode>  (77) 


>  <InstanceId>  (77) 
5ZA7_HMX_U_301

>  <ChemCompId>  (77) 
HMX

>  <PdbId>  (77) 
5ZA7

>  <ResidueNumber>  (77) 
301

>  <InChI>  (77) 
InChI=1S/C12H18ClN7O/c13-8-10(20-5-3-1-2-4-6-20)18-9(14)7(17-8)11(21)19-12(15)16/h1-6H2,(H2,14,18)(H4,15,16,19,21)

>  <InChIKey>  (77) 
RQQJJXVETXFINY-UHFFFAOYSA-N

>  <SMILES>  (77) 
C1CCCN(CC1)c2c(nc(c(n2)N)C(=O)N=C(N)N)Cl

>  <MissingHeavyAtoms>  (77) 
0

>  <Model>  (77) 
1

>  <AltIds>  (77) 


>  <pKI>  (77) 
5.87

>  <ChemblID>  (77) 
-

>  <standardized_canonical_smiles>  (77) 
NC(N)=NC(=O)c1nc(Cl)c(N2CCCCCC2)nc1N

$$$$
