1XS7_MMI_D_386
     RDKit          3D

 52 53  0  0  0  0  0  0  0  0999 V2000
   51.1340   21.9440  105.9880 C   0  0  0  0  0  0  0  0  0  0  0  0
   52.4370   21.5240  105.2040 C   0  0  0  0  0  0  0  0  0  0  0  0
   52.4760   22.1680  103.7940 C   0  0  0  0  0  0  0  0  0  0  0  0
   52.6040   19.9750  105.0300 C   0  0  0  0  0  0  0  0  0  0  0  0
   50.9490   23.4400  106.1260 N   0  0  0  0  0  0  0  0  0  0  0  0
   51.6050   24.3760  106.9810 C   0  0  0  0  0  0  0  0  0  0  0  0
   51.2220   25.5500  106.8670 O   0  0  0  0  0  0  0  0  0  0  0  0
   52.6070   24.0220  107.9090 O   0  0  0  0  0  0  0  0  0  0  0  0
   53.8920   24.6710  107.8410 C   0  0  0  0  0  0  0  0  0  0  0  0
   51.0260   21.3160  107.4150 C   0  0  0  0  0  0  0  0  0  0  0  0
   51.9670   21.0430  108.1150 O   0  0  0  0  0  0  0  0  0  0  0  0
   49.7720   21.1330  107.8500 N   0  0  0  0  0  0  0  0  0  0  0  0
   49.3790   19.9010  108.5280 C   0  0  0  0  0  0  0  0  0  0  0  0
   48.9820   20.0990  110.0240 C   0  0  0  0  0  0  0  0  0  0  0  0
   50.1510   20.5130  110.9630 C   0  0  0  0  0  0  0  0  0  0  0  0
   49.9040   21.1390  111.9940 O   0  0  0  0  0  0  0  0  0  0  0  0
   51.4480   20.1180  110.6110 N   0  0  0  0  0  0  0  0  0  0  0  0
   48.1710   19.2970  107.7500 C   0  0  0  0  0  0  0  0  0  0  0  0
   47.1380   19.9670  107.5740 O   0  0  0  0  0  0  0  0  0  0  0  0
   54.6780   24.4640  109.1470 C   0  0  0  0  0  0  0  0  0  0  0  0
   54.7770   22.9740  109.5200 C   0  0  0  0  0  0  0  0  0  0  0  0
   53.6010   22.4770  110.3890 C   0  0  0  0  0  0  0  0  0  0  0  0
   53.7610   20.9810  110.7070 C   0  0  0  0  0  0  0  0  0  0  0  0
   52.6040   20.4500  111.5040 C   0  0  0  0  0  0  0  0  0  0  0  0
   48.3780   17.9820  107.2780 N   0  0  0  0  0  0  0  0  0  0  0  0
   47.3550   17.2190  106.4860 C   0  0  0  0  0  0  0  0  0  0  0  0
   46.6740   16.1670  107.4360 C   0  0  0  0  0  0  0  0  0  0  0  0
   47.5090   15.8990  108.5840 O   0  0  0  0  0  0  0  0  0  0  0  0
   47.9670   16.5480  105.2070 C   0  0  0  0  0  0  0  0  0  0  0  0
   48.6840   17.5140  104.1880 C   0  0  0  0  0  0  0  0  0  0  0  0
   47.7420   18.6130  103.6260 C   0  0  0  0  0  0  0  0  0  0  0  0
   49.2680   16.7410  102.9860 C   0  0  0  0  0  0  0  0  0  0  0  0
   45.2510   16.6630  107.8600 C   0  0  0  0  0  0  0  0  0  0  0  0
   44.6990   16.6760  109.3370 C   0  0  0  0  0  0  0  0  0  0  0  0
   45.5330   17.4860  110.3460 C   0  0  0  0  0  0  0  0  0  0  0  0
   43.2550   17.2490  109.2880 C   0  0  0  0  0  0  0  0  0  0  0  0
   43.0300   18.4640  109.3390 O   0  0  0  0  0  0  0  0  0  0  0  0
   42.2310   16.2660  109.1380 N   0  0  0  0  0  0  0  0  0  0  0  0
   40.7380   16.5220  109.0140 C   0  0  0  0  0  0  0  0  0  0  0  0
   39.9290   15.1880  108.7480 C   0  0  0  0  0  0  0  0  0  0  0  0
   40.2870   17.2560  110.3100 C   0  0  0  0  0  0  0  0  0  0  0  0
   40.7410   16.9340  111.4010 O   0  0  0  0  0  0  0  0  0  0  0  0
   40.3700   14.4800  107.4640 C   0  0  0  0  0  0  0  0  0  0  0  0
   38.4280   15.4120  108.6060 C   0  0  0  0  0  0  0  0  0  0  0  0
   39.3510   18.2790  110.0950 N   0  0  0  0  0  0  0  0  0  0  0  0
   38.7740   19.1170  111.1790 C   0  0  0  0  0  0  0  0  0  0  0  0
   38.2260   20.4530  110.6640 C   0  0  0  0  0  0  0  0  0  0  0  0
   36.8190   20.6780  110.4390 C   0  0  0  0  0  0  0  0  0  0  0  0
   36.3350   21.9450  109.9570 C   0  0  0  0  0  0  0  0  0  0  0  0
   37.2600   23.0130  109.6980 C   0  0  0  0  0  0  0  0  0  0  0  0
   38.6620   22.8060  109.9160 C   0  0  0  0  0  0  0  0  0  0  0  0
   39.1320   21.5440  110.3960 C   0  0  0  0  0  0  0  0  0  0  0  0
  2  1  1  0
  5  1  1  0
 10  1  1  0
  3  2  1  0
  4  2  1  0
  6  5  1  0
  7  6  2  0
  8  6  1  0
  9  8  1  0
 20  9  1  0
 11 10  2  0
 12 10  1  0
 13 12  1  0
 14 13  1  0
 18 13  1  0
 15 14  1  0
 16 15  2  0
 17 15  1  0
 24 17  1  0
 19 18  2  0
 25 18  1  0
 21 20  1  0
 22 21  1  0
 23 22  1  0
 24 23  1  0
 26 25  1  0
 27 26  1  0
 29 26  1  0
 28 27  1  0
 33 27  1  0
 30 29  1  0
 31 30  1  0
 32 30  1  0
 34 33  1  0
 35 34  1  0
 36 34  1  0
 37 36  2  0
 38 36  1  0
 39 38  1  0
 40 39  1  0
 41 39  1  0
 43 40  1  0
 44 40  1  0
 42 41  2  0
 45 41  1  0
 46 45  1  0
 47 46  1  0
 48 47  2  0
 52 47  1  0
 49 48  1  0
 50 49  2  0
 51 50  1  0
 52 51  2  0
A    1
C11
A    2
C12
A    3
C13
A    4
C14
A    5
N1
A    6
C16
A    7
O12
A    8
O13
A    9
C17
A   10
C15
A   11
O11
A   12
N21
A   13
C21
A   14
C22
A   15
C23
A   16
O22
A   17
N22
A   18
C29
A   19
O21
A   20
C28
A   21
C27
A   22
C26
A   23
C25
A   24
C24
A   25
N3
A   26
C31
A   27
C32
A   28
O31
A   29
C33
A   30
C34
A   31
C35
A   32
C36
A   33
C37
A   34
C38
A   35
C39
A   36
C30
A   37
O32
A   38
N4
A   39
C41
A   40
C42
A   41
C45
A   42
O4
A   43
C44
A   44
C43
A   45
N5
A   46
C51
A   47
C52
A   48
C57
A   49
C56
A   50
C55
A   51
C54
A   52
C53
M  END
>  <Id>  (1) 
1XS7_MMI_D_386

>  <ChainId>  (1) 
D

>  <AsymId>  (1) 
B

>  <SeqNum>  (1) 
386

>  <Name>  (1) 
N-[(4S,5S,7R)-8-({(S)-1-[(BENZYLAMINO)OXOMETHYL]-2-METHYLPROPYL}AMINO)-5-HYDROXY-2,7-DIMETHYL-8-OXO-OCT-4-YL]-(4S,7S)-4-ISOPROPYL-2,5,9-TRIOXO-1-OXA-3,6,10-TRIAZACYCLOHEXADECANE-7-CARBOXAMIDE

>  <SystematicName>  (1) 
(4S,7S)-N-[(4S,5S,7R)-5-hydroxy-2,7-dimethyl-8-[[(2S)-3-methyl-1-oxo-1-(phenylmethylamino)butan-2-yl]amino]-8-oxo-octan-4-yl]-2,5,9-trioxo-4-propan-2-yl-1-oxa-3,6,10-triazacyclohexadecane-7-carboxamide

>  <Synonyms>  (1) 
MMI-175

>  <Type>  (1) 
NON-POLYMER

>  <Formula>  (1) 
C38 H62 N6 O8

>  <ObservedFormula>  (1) 
C38 N6 O8

>  <MolecularWeight>  (1) 
730.934

>  <ModifiedDate>  (1) 
2011-06-04

>  <Parent>  (1) 


>  <OneLetterCode>  (1) 


>  <SubcomponentList>  (1) 


>  <AmbiguousFlag>  (1) 
N

>  <InsertionCode>  (1) 


>  <InstanceId>  (1) 
1XS7_MMI_D_386

>  <ChemCompId>  (1) 
MMI

>  <PdbId>  (1) 
1XS7

>  <ResidueNumber>  (1) 
386

>  <InChI>  (1) 
InChI=1S/C38H62N6O8/c1-23(2)19-28(30(45)20-26(7)34(47)43-32(24(3)4)36(49)40-22-27-15-11-10-12-16-27)41-35(48)29-21-31(46)39-17-13-8-9-14-18-52-38(51)44-33(25(5)6)37(50)42-29/h10-12,15-16,23-26,28-30,32-33,45H,8-9,13-14,17-22H2,1-7H3,(H,39,46)(H,40,49)(H,41,48)(H,42,50)(H,43,47)(H,44,51)/t26-,28+,29+,30+,32+,33+/m1/s1

>  <InChIKey>  (1) 
QJAPFAZHNSZLJE-CWURXVSKSA-N

>  <SMILES>  (1) 
CC(C)C[C@@H]([C@H](C[C@@H](C)C(=O)N[C@@H](C(C)C)C(=O)NCc1ccccc1)O)NC(=O)[C@@H]2CC(=O)NCCCCCCOC(=O)N[C@H](C(=O)N2)C(C)C

>  <MissingHeavyAtoms>  (1) 
0

>  <Model>  (1) 
1

>  <AltIds>  (1) 


>  <pKI>  (1) 
7.6

>  <ChemblID>  (1) 
CHEMBL362592

>  <standardized_canonical_smiles>  (1) 
CC(C)C[C@H](NC(=O)[C@@H]1CC(=O)NCCCCCCOC(=O)N[C@@H](C(C)C)C(=O)N1)[C@@H](O)C[C@@H](C)C(=O)N[C@H](C(=O)NCc1ccccc1)C(C)C

$$$$
2FDP_FRP_C_386
     RDKit          3D

 41 43  0  0  0  0  0  0  0  0999 V2000
  -32.3720   -2.9590  -16.7910 C   0  0  0  0  0  0  0  0  0  0  0  0
  -31.9270   -1.7340  -17.2880 C   0  0  0  0  0  0  0  0  0  0  0  0
  -30.7940   -1.2980  -15.1980 C   0  0  0  0  0  0  0  0  0  0  0  0
  -32.7640   -7.0760   -8.6180 C   0  0  0  0  0  0  0  0  0  0  0  0
  -33.4140   -8.0450   -9.3890 C   0  0  0  0  0  0  0  0  0  0  0  0
  -35.1980   -8.1280   -7.7580 C   0  0  0  0  0  0  0  0  0  0  0  0
  -34.5480   -7.1590   -6.9980 C   0  0  0  0  0  0  0  0  0  0  0  0
  -33.3320   -6.6330   -7.4260 C   0  0  0  0  0  0  0  0  0  0  0  0
  -31.8710   -7.0170  -14.2110 C   0  0  0  0  0  0  0  0  0  0  0  0
  -32.5300   -4.6950  -14.9840 C   0  0  0  0  0  0  0  0  0  0  0  0
  -31.7840   -8.1190  -11.1610 C   0  0  0  0  0  0  0  0  0  0  0  0
  -31.4240   -5.5580  -14.3650 C   0  0  0  0  0  0  0  0  0  0  0  0
  -29.0330   -5.3300  -14.9080 C   0  0  0  0  0  0  0  0  0  0  0  0
  -25.6460   -1.4200  -18.7630 C   0  0  0  0  0  0  0  0  0  0  0  0
  -30.9240   -3.7090  -20.8400 C   0  0  0  0  0  0  0  0  0  0  0  0
  -27.0300   -0.9100  -19.1080 C   0  0  0  0  0  0  0  0  0  0  0  0
  -30.2330   -2.3600  -20.8760 C   0  0  0  0  0  0  0  0  0  0  0  0
  -28.7110   -2.4550  -21.0260 C   0  0  0  0  0  0  0  0  0  0  0  0
  -28.1280   -1.8900  -18.6930 C   0  0  0  0  0  0  0  0  0  0  0  0
  -27.8470   -4.2010  -19.5600 C   0  0  0  0  0  0  0  0  0  0  0  0
  -28.3100   -4.8040  -17.2210 C   0  0  0  0  0  0  0  0  0  0  0  0
  -27.9640   -5.2740  -15.9630 C   0  0  0  0  0  0  0  0  0  0  0  0
  -26.6450   -5.6630  -15.7230 C   0  0  0  0  0  0  0  0  0  0  0  0
  -27.3660   -4.7070  -18.2370 C   0  0  0  0  0  0  0  0  0  0  0  0
  -26.0500   -5.1050  -18.0120 C   0  0  0  0  0  0  0  0  0  0  0  0
  -25.6940   -5.5790  -16.7470 C   0  0  0  0  0  0  0  0  0  0  0  0
  -35.0930   -6.7320   -5.8470 F   0  0  0  0  0  0  0  0  0  0  0  0
  -34.6280   -8.5710   -8.9490 C   0  0  0  0  0  0  0  0  0  0  0  0
  -32.9210   -8.4990  -10.5740 N   0  0  0  0  0  0  0  0  0  0  0  0
  -31.0160   -7.2890  -10.7000 O   0  0  0  0  0  0  0  0  0  0  0  0
  -31.4900   -8.8030  -12.4690 C   0  0  0  0  0  0  0  0  0  0  0  0
  -30.5960  -10.0140  -12.2230 C   0  0  0  0  0  0  0  0  0  0  0  0
  -30.8330   -7.8500  -13.4630 C   0  0  0  0  0  0  0  0  0  0  0  0
  -32.1480   -7.6220  -15.5010 N   0  0  0  0  0  0  0  0  0  0  0  0
  -32.0290   -3.3580  -15.4990 C   0  0  0  0  0  0  0  0  0  0  0  0
  -31.2430   -2.5200  -14.7010 C   0  0  0  0  0  0  0  0  0  0  0  0
  -31.1390   -0.9040  -16.4910 C   0  0  0  0  0  0  0  0  0  0  0  0
  -30.2990   -5.5080  -15.3000 N   0  0  0  0  0  0  0  0  0  0  0  0
  -28.7230   -5.2020  -13.7320 O   0  0  0  0  0  0  0  0  0  0  0  0
  -27.9390   -5.0200  -20.4580 O   0  0  0  0  0  0  0  0  0  0  0  0
  -28.2060   -2.9190  -19.7350 N   0  0  0  0  0  0  0  0  0  0  0  0
  2  1  2  0
 35  1  1  0
 37  2  1  0
 36  3  1  0
 37  3  2  0
  5  4  2  0
  8  4  1  0
 28  5  1  0
 29  5  1  0
  7  6  1  0
 28  6  2  0
  8  7  2  0
 27  7  1  0
 12  9  1  0
 33  9  1  0
 34  9  1  0
 12 10  1  0
 35 10  1  0
 29 11  1  0
 30 11  2  0
 31 11  1  0
 38 12  1  0
 22 13  1  0
 38 13  1  0
 39 13  2  0
 16 14  1  0
 17 15  1  0
 19 16  1  0
 18 17  1  0
 41 18  1  0
 41 19  1  0
 24 20  1  0
 40 20  2  0
 41 20  1  0
 22 21  2  0
 24 21  1  0
 23 22  1  0
 26 23  2  0
 25 24  2  0
 26 25  1  0
 32 31  1  0
 33 31  1  0
 36 35  2  0
A    1
C31
A    2
C30
A    3
C28
A    4
C27
A    5
C26
A    6
C24
A    7
C23
A    8
C22
A    9
C16
A   10
C17
A   11
C20
A   12
C15
A   13
C12
A   14
C13
A   15
C14
A   16
C11
A   17
C10
A   18
C9
A   19
C8
A   20
C7
A   21
C4
A   22
C5
A   23
C6
A   24
C3
A   25
C2
A   26
C1
A   27
F1
A   28
C25
A   29
N3
A   30
O3
A   31
C19
A   32
C21
A   33
C18
A   34
N4
A   35
C32
A   36
C33
A   37
C29
A   38
N2
A   39
O2
A   40
O1
A   41
N1
M  END
>  <Id>  (2) 
2FDP_FRP_C_386

>  <ChainId>  (2) 
C

>  <AsymId>  (2) 
F

>  <SeqNum>  (2) 
386

>  <Name>  (2) 
N1-((2S,3S,5R)-3-AMINO-6-(4-FLUOROPHENYLAMINO)-5-METHYL-6-OXO-1-PHENYLHEXAN-2-YL)-N3,N3-DIPROPYLISOPHTHALAMIDE

>  <SystematicName>  (2) 
N'-[(2S,3S,5R)-3-amino-6-[(4-fluorophenyl)amino]-5-methyl-6-oxo-1-phenyl-hexan-2-yl]-N,N-dipropyl-benzene-1,3-dicarboxamide

>  <Synonyms>  (2) 


>  <Type>  (2) 
NON-POLYMER

>  <Formula>  (2) 
C33 H41 F N4 O3

>  <ObservedFormula>  (2) 
C33 F N4 O3

>  <MolecularWeight>  (2) 
560.702

>  <ModifiedDate>  (2) 
2011-06-04

>  <Parent>  (2) 


>  <OneLetterCode>  (2) 


>  <SubcomponentList>  (2) 


>  <AmbiguousFlag>  (2) 
N

>  <InsertionCode>  (2) 


>  <InstanceId>  (2) 
2FDP_FRP_C_386

>  <ChemCompId>  (2) 
FRP

>  <PdbId>  (2) 
2FDP

>  <ResidueNumber>  (2) 
386

>  <InChI>  (2) 
InChI=1S/C33H41FN4O3/c1-4-18-38(19-5-2)33(41)26-13-9-12-25(22-26)32(40)37-30(21-24-10-7-6-8-11-24)29(35)20-23(3)31(39)36-28-16-14-27(34)15-17-28/h6-17,22-23,29-30H,4-5,18-21,35H2,1-3H3,(H,36,39)(H,37,40)/t23-,29+,30+/m1/s1

>  <InChIKey>  (2) 
PZHFCAIXAVDQAK-STQWGSIPSA-N

>  <SMILES>  (2) 
CCCN(CCC)C(=O)c1cccc(c1)C(=O)N[C@@H](Cc2ccccc2)[C@H](C[C@@H](C)C(=O)Nc3ccc(cc3)F)N

>  <MissingHeavyAtoms>  (2) 
0

>  <Model>  (2) 
1

>  <AltIds>  (2) 


>  <pKI>  (2) 
7.59

>  <ChemblID>  (2) 
CHEMBL200077

>  <standardized_canonical_smiles>  (2) 
CCCN(CCC)C(=O)c1cccc(C(=O)N[C@@H](Cc2ccccc2)[C@@H](N)C[C@@H](C)C(=O)Nc2ccc(F)cc2)c1

$$$$
2IRZ_I02_A_386
     RDKit          3D

 39 42  0  0  0  0  0  0  0  0999 V2000
   32.2250   44.6480    6.2300 C   0  0  0  0  0  0  0  0  0  0  0  0
   32.4960   45.6210    5.1500 C   0  0  0  0  0  0  0  0  0  0  0  0
   32.3750   47.0640    5.2950 C   0  0  0  0  0  0  0  0  0  0  0  0
   32.0100   47.5830    6.5810 C   0  0  0  0  0  0  0  0  0  0  0  0
   31.7670   46.6240    7.6340 C   0  0  0  0  0  0  0  0  0  0  0  0
   31.8460   45.1800    7.5050 C   0  0  0  0  0  0  0  0  0  0  0  0
   32.9070   45.2060    3.7920 C   0  0  0  0  0  0  0  0  0  0  0  0
   31.8570   44.4580    3.1170 N   0  0  0  0  0  0  0  0  0  0  0  0
   31.1640   44.9150    2.0360 C   0  0  0  0  0  0  0  0  0  0  0  0
   30.1390   43.9950    1.5190 C   0  0  0  0  0  0  0  0  0  0  0  0
   30.3300   42.5780    1.5080 C   0  0  0  0  0  0  0  0  0  0  0  0
   29.3090   41.6960    1.0440 C   0  0  0  0  0  0  0  0  0  0  0  0
   28.0700   42.2110    0.5890 C   0  0  0  0  0  0  0  0  0  0  0  0
   27.8380   43.6310    0.5820 C   0  0  0  0  0  0  0  0  0  0  0  0
   28.8950   44.5180    1.0300 C   0  0  0  0  0  0  0  0  0  0  0  0
   26.5780   44.0580    0.2130 N   0  0  0  0  0  0  0  0  0  0  0  0
   25.7940   45.1940    1.0460 S   0  0  0  0  0  0  0  0  0  0  0  0
   26.1490   46.8010    0.3190 C   0  0  0  0  0  0  0  0  0  0  0  0
   25.9560   43.5940   -1.0430 C   0  0  0  0  0  0  0  0  0  0  0  0
   31.3600   46.0200    1.5280 O   0  0  0  0  0  0  0  0  0  0  0  0
   26.3340   45.2180    2.3670 O   0  0  0  0  0  0  0  0  0  0  0  0
   24.4010   44.8890    0.8770 O   0  0  0  0  0  0  0  0  0  0  0  0
   34.1930   44.3400    3.8480 C   0  0  0  0  0  0  0  0  0  0  0  0
   31.4540   47.1260    8.8350 F   0  0  0  0  0  0  0  0  0  0  0  0
   31.4460   37.7650    2.7430 C   0  0  0  0  0  0  0  0  0  0  0  0
   31.4040   38.5060    4.0150 N   0  0  0  0  0  0  0  0  0  0  0  0
   30.9600   36.3270    2.9700 C   0  0  0  0  0  0  0  0  0  0  0  0
   32.8420   37.7650    2.1020 C   0  0  0  0  0  0  0  0  0  0  0  0
   34.4060   41.6550    0.8990 C   0  0  0  0  0  0  0  0  0  0  0  0
   33.6140   40.8970   -0.0570 C   0  0  0  0  0  0  0  0  0  0  0  0
   33.1030   39.6010    0.3350 C   0  0  0  0  0  0  0  0  0  0  0  0
   33.4030   39.1090    1.6870 C   0  0  0  0  0  0  0  0  0  0  0  0
   34.2080   39.8700    2.6390 C   0  0  0  0  0  0  0  0  0  0  0  0
   34.7130   41.1720    2.2390 C   0  0  0  0  0  0  0  0  0  0  0  0
   29.6650   38.1620    0.8410 N   0  0  0  0  0  0  0  0  0  0  0  0
   29.1190   39.2390    0.4160 N   0  0  0  0  0  0  0  0  0  0  0  0
   29.5970   40.2920    1.1370 C   0  0  0  0  0  0  0  0  0  0  0  0
   30.4020   39.7890    2.0290 O   0  0  0  0  0  0  0  0  0  0  0  0
   30.4790   38.4870    1.8630 C   0  0  0  0  0  0  0  0  0  0  0  0
  2  1  2  0
  6  1  1  0
  3  2  1  0
  7  2  1  0
  4  3  2  0
  5  4  1  0
  6  5  2  0
 24  5  1  0
  8  7  1  0
 23  7  1  0
  9  8  1  0
 10  9  1  0
 20  9  2  0
 11 10  2  0
 15 10  1  0
 12 11  1  0
 13 12  2  0
 37 12  1  0
 14 13  1  0
 15 14  2  0
 16 14  1  0
 17 16  1  0
 19 16  1  0
 18 17  1  0
 21 17  2  0
 22 17  2  0
 26 25  1  0
 27 25  1  0
 28 25  1  0
 39 25  1  0
 32 28  1  0
 30 29  2  0
 34 29  1  0
 31 30  1  0
 32 31  2  0
 33 32  1  0
 34 33  2  0
 36 35  1  0
 39 35  2  0
 37 36  2  0
 38 37  1  0
 39 38  1  0
A    1
C1
A    2
C2
A    3
C3
A    4
C4
A    5
C5
A    6
C6
A    7
C7
A    8
N1
A    9
C8
A   10
C9
A   11
C10
A   12
C11
A   13
C12
A   14
C13
A   15
C14
A   16
N2
A   17
S1
A   18
C15
A   19
C16
A   20
O1
A   21
O2
A   22
O3
A   23
C17
A   24
F1
A   25
C20
A   26
N3
A   27
C21
A   28
C22
A   29
C23
A   30
C24
A   31
C25
A   32
C26
A   33
C27
A   34
C28
A   35
N35
A   36
N4
A   37
C29
A   38
O4
A   39
C30
M  END
>  <Id>  (3) 
2IRZ_I02_A_386

>  <ChainId>  (3) 
A

>  <AsymId>  (3) 
B

>  <SeqNum>  (3) 
386

>  <Name>  (3) 
3-{5-[(1R)-1-AMINO-1-METHYL-2-PHENYLETHYL]-1,3,4-OXADIAZOL-2-YL}-N-[(1R)-1-(4-FLUOROPHENYL)ETHYL]-5-[METHYL(METHYLSULFONYL)AMINO]BENZAMIDE

>  <SystematicName>  (3) 
3-[5-[(2R)-2-amino-1-phenyl-propan-2-yl]-1,3,4-oxadiazol-2-yl]-N-[(1R)-1-(4-fluorophenyl)ethyl]-5-(methyl-methylsulfonyl-amino)benzamide

>  <Synonyms>  (3) 


>  <Type>  (3) 
NON-POLYMER

>  <Formula>  (3) 
C28 H30 F N5 O4 S

>  <ObservedFormula>  (3) 
C28 S F N5 O4

>  <MolecularWeight>  (3) 
551.632

>  <ModifiedDate>  (3) 
2011-06-04

>  <Parent>  (3) 


>  <OneLetterCode>  (3) 


>  <SubcomponentList>  (3) 


>  <AmbiguousFlag>  (3) 


>  <InsertionCode>  (3) 


>  <InstanceId>  (3) 
2IRZ_I02_A_386

>  <ChemCompId>  (3) 
I02

>  <PdbId>  (3) 
2IRZ

>  <ResidueNumber>  (3) 
386

>  <InChI>  (3) 
InChI=1S/C28H30FN5O4S/c1-18(20-10-12-23(29)13-11-20)31-25(35)21-14-22(16-24(15-21)34(3)39(4,36)37)26-32-33-27(38-26)28(2,30)17-19-8-6-5-7-9-19/h5-16,18H,17,30H2,1-4H3,(H,31,35)/t18-,28-/m1/s1

>  <InChIKey>  (3) 
QEJSJQVKMSAHHX-KWMCUTETSA-N

>  <SMILES>  (3) 
C[C@H](c1ccc(cc1)F)NC(=O)c2cc(cc(c2)N(C)S(=O)(=O)C)c3nnc(o3)[C@@](C)(Cc4ccccc4)N

>  <MissingHeavyAtoms>  (3) 
0

>  <Model>  (3) 
1

>  <AltIds>  (3) 


>  <pKI>  (3) 
7.38

>  <ChemblID>  (3) 
CHEMBL219601

>  <standardized_canonical_smiles>  (3) 
C[C@@H](NC(=O)c1cc(-c2nnc([C@](C)(N)Cc3ccccc3)o2)cc(N(C)S(C)(=O)=O)c1)c1ccc(F)cc1

$$$$
2P4J_23I_D_504
     RDKit          3D

 49 50  0  0  0  0  0  0  0  0999 V2000
   42.8150   41.3310   31.9200 O   0  0  0  0  0  0  0  0  0  0  0  0
   27.2020   45.5010   34.5110 C   0  0  0  0  0  0  0  0  0  0  0  0
   26.3680   44.6090   35.2100 C   0  0  0  0  0  0  0  0  0  0  0  0
   26.9230   43.7330   36.1780 C   0  0  0  0  0  0  0  0  0  0  0  0
   28.3150   43.7420   36.4430 C   0  0  0  0  0  0  0  0  0  0  0  0
   29.1570   44.6380   35.7400 C   0  0  0  0  0  0  0  0  0  0  0  0
   28.6030   45.5340   34.7620 C   0  0  0  0  0  0  0  0  0  0  0  0
   29.3810   42.3780   27.1660 C   0  0  0  0  0  0  0  0  0  0  0  0
   30.3580   45.6000   31.8230 C   0  0  0  0  0  0  0  0  0  0  0  0
   35.2750   44.4100   31.5620 C   0  0  0  0  0  0  0  0  0  0  0  0
   31.2380   43.9860   30.0460 C   0  0  0  0  0  0  0  0  0  0  0  0
   33.8800   44.2420   31.0570 C   0  0  0  0  0  0  0  0  0  0  0  0
   40.0430   42.5810   32.9620 C   0  0  0  0  0  0  0  0  0  0  0  0
   36.7020   44.9500   33.5450 C   0  0  0  0  0  0  0  0  0  0  0  0
   37.2570   43.7170   34.2970 C   0  0  0  0  0  0  0  0  0  0  0  0
   36.4300   46.1620   34.4630 C   0  0  0  0  0  0  0  0  0  0  0  0
   35.4370   47.2110   33.9050 C   0  0  0  0  0  0  0  0  0  0  0  0
   34.5280   47.7280   35.0060 C   0  0  0  0  0  0  0  0  0  0  0  0
   29.4850   46.5320   33.9600 C   0  0  0  0  0  0  0  0  0  0  0  0
   30.3060   47.5110   34.8370 C   0  0  0  0  0  0  0  0  0  0  0  0
   30.4650   45.8160   33.1450 N   0  0  0  0  0  0  0  0  0  0  0  0
   29.3820   46.0290   31.1790 O   0  0  0  0  0  0  0  0  0  0  0  0
   31.4790   44.8300   31.1740 C   0  0  0  0  0  0  0  0  0  0  0  0
   32.3080   43.2540   29.4080 C   0  0  0  0  0  0  0  0  0  0  0  0
   33.6210   43.4070   29.9420 C   0  0  0  0  0  0  0  0  0  0  0  0
   32.7990   44.9330   31.6440 C   0  0  0  0  0  0  0  0  0  0  0  0
   32.0580   42.4090   28.2120 N   0  0  0  0  0  0  0  0  0  0  0  0
   33.1450   41.5140   27.7070 C   0  0  0  0  0  0  0  0  0  0  0  0
   30.5280   41.5160   28.2200 S   0  0  0  0  0  0  0  0  0  0  0  0
   30.7360   40.0830   27.6020 O   0  0  0  0  0  0  0  0  0  0  0  0
   29.8970   41.2640   29.6620 O   0  0  0  0  0  0  0  0  0  0  0  0
   36.2640   44.3310   30.8080 O   0  0  0  0  0  0  0  0  0  0  0  0
   35.4140   44.6960   32.8600 N   0  0  0  0  0  0  0  0  0  0  0  0
   36.1710   48.3950   33.2640 C   0  0  0  0  0  0  0  0  0  0  0  0
   37.5170   42.5180   33.3610 C   0  0  0  0  0  0  0  0  0  0  0  0
   38.8610   41.7810   33.5420 C   0  0  0  0  0  0  0  0  0  0  0  0
   38.7810   40.4050   32.8300 C   0  0  0  0  0  0  0  0  0  0  0  0
   36.3410   43.2870   35.2850 O   0  0  0  0  0  0  0  0  0  0  0  0
   39.9580   43.1210   31.8590 O   0  0  0  0  0  0  0  0  0  0  0  0
   41.1600   42.6340   33.7060 N   0  0  0  0  0  0  0  0  0  0  0  0
   42.4030   43.3400   33.2690 C   0  0  0  0  0  0  0  0  0  0  0  0
   43.3920   43.4550   34.5060 C   0  0  0  0  0  0  0  0  0  0  0  0
   44.5520   44.4410   34.2370 C   0  0  0  0  0  0  0  0  0  0  0  0
   44.0600   42.1150   34.9580 C   0  0  0  0  0  0  0  0  0  0  0  0
   42.9600   42.5590   32.0140 C   0  0  0  0  0  0  0  0  0  0  0  0
   43.5790   43.2860   31.0610 N   0  0  0  0  0  0  0  0  0  0  0  0
   44.1470   42.7030   29.8260 C   0  0  0  0  0  0  0  0  0  0  0  0
   45.3020   43.6110   29.3950 C   0  0  0  0  0  0  0  0  0  0  0  0
   43.0530   42.6590   28.7580 C   0  0  0  0  0  0  0  0  0  0  0  0
 45  1  2  0
  3  2  2  0
  7  2  1  0
  4  3  1  0
  5  4  2  0
  6  5  1  0
  7  6  2  0
 19  7  1  0
 29  8  1  0
 21  9  1  0
 22  9  2  0
 23  9  1  0
 12 10  1  0
 32 10  2  0
 33 10  1  0
 23 11  2  0
 24 11  1  0
 25 12  1  0
 26 12  2  0
 36 13  1  0
 39 13  2  0
 40 13  1  0
 15 14  1  0
 16 14  1  0
 33 14  1  0
 35 15  1  0
 38 15  1  0
 17 16  1  0
 18 17  1  0
 34 17  1  0
 20 19  1  0
 21 19  1  0
 26 23  1  0
 25 24  2  0
 27 24  1  0
 28 27  1  0
 29 27  1  0
 30 29  2  0
 31 29  2  0
 36 35  1  0
 37 36  1  0
 41 40  1  0
 42 41  1  0
 45 41  1  0
 43 42  1  0
 44 42  1  0
 46 45  1  0
 47 46  1  0
 48 47  1  0
 49 47  1  0
A    1
O4
A    2
C11
A    3
C12
A    4
C13
A    5
C14
A    6
C15
A    7
C16
A    8
C20
A    9
C21
A   10
C22
A   11
C24
A   12
C27
A   13
C30
A   14
C31
A   15
C32
A   16
C33
A   17
C34
A   18
C35
A   19
C17
A   20
C18
A   21
N21
A   22
O21
A   23
C23
A   24
C25
A   25
C26
A   26
C28
A   27
N22
A   28
C29
A   29
S2
A   30
O23
A   31
O24
A   32
O22
A   33
N3
A   34
C36
A   35
C37
A   36
C38
A   37
C39
A   38
O31
A   39
O32
A   40
N4
A   41
C41
A   42
C42
A   43
C43
A   44
C44
A   45
C45
A   46
N5
A   47
C51
A   48
C53
A   49
C52
M  END
>  <Id>  (4) 
2P4J_23I_D_504

>  <ChainId>  (4) 
D

>  <AsymId>  (4) 
H

>  <SeqNum>  (4) 
504

>  <Name>  (4) 
N-[(1S,2S,4R)-2-HYDROXY-1-ISOBUTYL-5-({(1S)-1-[(ISOPROPYLAMINO)CARBONYL]-2-METHYLPROPYL}AMINO)-4-METHYL-5-OXOPENTYL]-5-[METHYL(METHYLSULFONYL)AMINO]-N'-[(1R)-1-PHENYLETHYL]ISOPHTHALAMIDE

>  <SystematicName>  (4) 
N-[(4S,5S,7R)-5-hydroxy-2,7-dimethyl-8-[[(2S)-3-methyl-1-oxo-1-(propan-2-ylamino)butan-2-yl]amino]-8-oxo-octan-4-yl]-5-(methyl-methylsulfonyl-amino)-N'-[(1R)-1-phenylethyl]benzene-1,3-dicarboxamide

>  <Synonyms>  (4) 


>  <Type>  (4) 
NON-POLYMER

>  <Formula>  (4) 
C36 H55 N5 O7 S

>  <ObservedFormula>  (4) 
C36 S N5 O7

>  <MolecularWeight>  (4) 
701.916

>  <ModifiedDate>  (4) 
2011-06-04

>  <Parent>  (4) 


>  <OneLetterCode>  (4) 


>  <SubcomponentList>  (4) 


>  <AmbiguousFlag>  (4) 


>  <InsertionCode>  (4) 


>  <InstanceId>  (4) 
2P4J_23I_D_504

>  <ChemCompId>  (4) 
23I

>  <PdbId>  (4) 
2P4J

>  <ResidueNumber>  (4) 
504

>  <InChI>  (4) 
InChI=1S/C36H55N5O7S/c1-21(2)16-30(31(42)17-24(7)33(43)40-32(22(3)4)36(46)37-23(5)6)39-35(45)28-18-27(19-29(20-28)41(9)49(10,47)48)34(44)38-25(8)26-14-12-11-13-15-26/h11-15,18-25,30-32,42H,16-17H2,1-10H3,(H,37,46)(H,38,44)(H,39,45)(H,40,43)/t24-,25-,30+,31+,32+/m1/s1

>  <InChIKey>  (4) 
BJOCXJJVELLFKM-LLWRDSBASA-N

>  <SMILES>  (4) 
CC(C)C[C@@H]([C@H](C[C@@H](C)C(=O)N[C@@H](C(C)C)C(=O)NC(C)C)O)NC(=O)c1cc(cc(c1)[N@@](C)S(=O)(=O)C)C(=O)N[C@H](C)c2ccccc2

>  <MissingHeavyAtoms>  (4) 
0

>  <Model>  (4) 
1

>  <AltIds>  (4) 


>  <pKI>  (4) 
8.96

>  <ChemblID>  (4) 
CHEMBL387771

>  <standardized_canonical_smiles>  (4) 
CC(C)C[C@H](NC(=O)c1cc(C(=O)N[C@H](C)c2ccccc2)cc(N(C)S(C)(=O)=O)c1)[C@@H](O)C[C@@H](C)C(=O)N[C@H](C(=O)NC(C)C)C(C)C

$$$$
3TPP_5HA_A_999
     RDKit          3D

 41 44  0  0  0  0  0  0  0  0999 V2000
   26.3450   36.1600    2.4520 C   0  0  0  0  0  0  0  0  0  0  0  0
   27.6890   35.5430    2.2710 C   0  0  0  0  0  0  0  0  0  0  0  0
   26.7370   34.7200    3.0660 C   0  0  0  0  0  0  0  0  0  0  0  0
   28.7400   36.1130    3.0810 N   0  0  0  0  0  0  0  0  0  0  0  0
   29.4950   37.0920    2.2420 C   0  0  0  0  0  0  0  0  0  0  0  0
   30.8220   37.4050    2.9060 C   0  0  0  0  0  0  0  0  0  0  0  0
   31.5150   38.3460    1.9300 C   0  0  0  0  0  0  0  0  0  0  0  0
   31.0010   39.7030    1.7940 N   0  0  0  0  0  0  0  0  0  0  0  0
   30.1900   40.0840    0.7690 C   0  0  0  0  0  0  0  0  0  0  0  0
   29.9240   39.3110   -0.1310 O   0  0  0  0  0  0  0  0  0  0  0  0
   31.5100   36.1420    3.0210 O   0  0  0  0  0  0  0  0  0  0  0  0
   33.0390   38.5410    2.3710 C   0  0  0  0  0  0  0  0  0  0  0  0
   29.7870   41.5160    0.8260 C   0  0  0  0  0  0  0  0  0  0  0  0
   30.7350   42.4270    1.3270 C   0  0  0  0  0  0  0  0  0  0  0  0
   30.3550   43.7710    1.4300 C   0  0  0  0  0  0  0  0  0  0  0  0
   29.0860   44.2090    0.9470 C   0  0  0  0  0  0  0  0  0  0  0  0
   28.1500   43.2680    0.5480 C   0  0  0  0  0  0  0  0  0  0  0  0
   28.4700   41.9470    0.4230 C   0  0  0  0  0  0  0  0  0  0  0  0
   31.3150   44.8100    1.9260 C   0  0  0  0  0  0  0  0  0  0  0  0
   26.8170   43.5970    0.1170 N   0  0  0  0  0  0  0  0  0  0  0  0
   31.4640   45.9420    1.4200 O   0  0  0  0  0  0  0  0  0  0  0  0
   26.1550   42.8100   -0.9810 C   0  0  0  0  0  0  0  0  0  0  0  0
   25.9860   44.7960    0.7960 S   0  0  0  0  0  0  0  0  0  0  0  0
   26.3030   46.2370   -0.1690 C   0  0  0  0  0  0  0  0  0  0  0  0
   24.5950   44.4440    0.7080 O   0  0  0  0  0  0  0  0  0  0  0  0
   26.5450   45.0600    2.1220 O   0  0  0  0  0  0  0  0  0  0  0  0
   33.5910   39.7890    0.2230 C   0  0  0  0  0  0  0  0  0  0  0  0
   34.2860   40.7690   -0.4490 C   0  0  0  0  0  0  0  0  0  0  0  0
   35.1450   41.6850    0.2020 C   0  0  0  0  0  0  0  0  0  0  0  0
   35.3230   41.5390    1.5960 C   0  0  0  0  0  0  0  0  0  0  0  0
   34.5870   40.5130    2.2660 C   0  0  0  0  0  0  0  0  0  0  0  0
   33.7960   39.6420    1.5800 C   0  0  0  0  0  0  0  0  0  0  0  0
   32.0780   44.3060    2.9780 N   0  0  0  0  0  0  0  0  0  0  0  0
   33.0830   45.1870    3.5950 C   0  0  0  0  0  0  0  0  0  0  0  0
   34.4230   44.4130    3.7510 C   0  0  0  0  0  0  0  0  0  0  0  0
   32.6190   45.5730    4.9960 C   0  0  0  0  0  0  0  0  0  0  0  0
   32.1930   44.5870    5.9230 C   0  0  0  0  0  0  0  0  0  0  0  0
   31.7960   45.0120    7.2010 C   0  0  0  0  0  0  0  0  0  0  0  0
   31.6650   46.3500    7.5640 C   0  0  0  0  0  0  0  0  0  0  0  0
   32.0410   47.2890    6.6000 C   0  0  0  0  0  0  0  0  0  0  0  0
   32.4990   46.8990    5.3430 C   0  0  0  0  0  0  0  0  0  0  0  0
  2  1  1  0
  3  1  1  0
  3  2  1  0
  4  2  1  0
  5  4  1  0
  6  5  1  0
  7  6  1  0
 11  6  1  0
  8  7  1  0
 12  7  1  0
  9  8  1  0
 10  9  2  0
 13  9  1  0
 32 12  1  0
 14 13  2  0
 18 13  1  0
 15 14  1  0
 16 15  2  0
 19 15  1  0
 17 16  1  0
 18 17  2  0
 20 17  1  0
 21 19  2  0
 33 19  1  0
 22 20  1  0
 23 20  1  0
 24 23  1  0
 25 23  2  0
 26 23  2  0
 28 27  2  0
 32 27  1  0
 29 28  1  0
 30 29  2  0
 31 30  1  0
 32 31  2  0
 34 33  1  0
 35 34  1  0
 36 34  1  0
 37 36  2  0
 41 36  1  0
 38 37  1  0
 39 38  2  0
 40 39  1  0
 41 40  2  0
A    1
C1
A    2
C2
A    3
C3
A    4
N1
A    5
C4
A    6
C5
A    7
C6
A    8
N2
A    9
C7
A   10
O2
A   11
O3
A   12
C8
A   13
C9
A   14
C10
A   15
C11
A   16
C12
A   17
C13
A   18
C14
A   19
C15
A   20
N3
A   21
O4
A   22
C16
A   23
S1
A   24
C23
A   25
O5
A   26
O6
A   27
C24
A   28
C25
A   29
C26
A   30
C27
A   31
C28
A   32
C29
A   33
N4
A   34
C17
A   35
C18
A   36
C30
A   37
C31
A   38
C32
A   39
C33
A   40
C34
A   41
C35
M  END
>  <Id>  (5) 
3TPP_5HA_A_999

>  <ChainId>  (5) 
A

>  <AsymId>  (5) 
B

>  <SeqNum>  (5) 
999

>  <Name>  (5) 
N-[(1S,2R)-1-BENZYL-3-(CYCLOPROPYLAMINO)-2-HYDROXYPROPYL]-5-[METHYL(METHYLSULFONYL)AMINO]-N'-[(1R)-1-PHENYLETHYL]ISOPHTHALAMIDE

>  <SystematicName>  (5) 
N'-[(2S,3R)-4-(cyclopropylamino)-3-hydroxy-1-phenyl-butan-2-yl]-5-(methyl-methylsulfonyl-amino)-N-[(1R)-1-phenylethyl]benzene-1,3-dicarboxamide

>  <Synonyms>  (5) 


>  <Type>  (5) 
NON-POLYMER

>  <Formula>  (5) 
C31 H38 N4 O5 S

>  <ObservedFormula>  (5) 
C31 S N4 O5

>  <MolecularWeight>  (5) 
578.722

>  <ModifiedDate>  (5) 
2011-06-04

>  <Parent>  (5) 


>  <OneLetterCode>  (5) 


>  <SubcomponentList>  (5) 


>  <AmbiguousFlag>  (5) 
N

>  <InsertionCode>  (5) 


>  <InstanceId>  (5) 
3TPP_5HA_A_999

>  <ChemCompId>  (5) 
5HA

>  <PdbId>  (5) 
3TPP

>  <ResidueNumber>  (5) 
999

>  <InChI>  (5) 
InChI=1S/C31H38N4O5S/c1-21(23-12-8-5-9-13-23)33-30(37)24-17-25(19-27(18-24)35(2)41(3,39)40)31(38)34-28(16-22-10-6-4-7-11-22)29(36)20-32-26-14-15-26/h4-13,17-19,21,26,28-29,32,36H,14-16,20H2,1-3H3,(H,33,37)(H,34,38)/t21-,28+,29-/m1/s1

>  <InChIKey>  (5) 
VPNIQGRFZCTBEZ-SPTGULJVSA-N

>  <SMILES>  (5) 
C[C@H](c1ccccc1)NC(=O)c2cc(cc(c2)N(C)S(=O)(=O)C)C(=O)N[C@@H](Cc3ccccc3)[C@@H](CNC4CC4)O

>  <MissingHeavyAtoms>  (5) 
0

>  <Model>  (5) 
1

>  <AltIds>  (5) 


>  <pKI>  (5) 
6.63

>  <ChemblID>  (5) 
CHEMBL378225

>  <standardized_canonical_smiles>  (5) 
C[C@@H](NC(=O)c1cc(C(=O)N[C@@H](Cc2ccccc2)[C@H](O)CNC2CC2)cc(N(C)S(C)(=O)=O)c1)c1ccccc1

$$$$
2B8L_5HA_A_386
     RDKit          3D

 41 44  0  0  0  0  0  0  0  0999 V2000
   26.3510   36.1890    2.5230 C   0  0  0  0  0  0  0  0  0  0  0  0
   27.6740   35.5740    2.2480 C   0  0  0  0  0  0  0  0  0  0  0  0
   26.6870   34.8080    3.0100 C   0  0  0  0  0  0  0  0  0  0  0  0
   28.7390   36.1050    3.1150 N   0  0  0  0  0  0  0  0  0  0  0  0
   29.4720   37.1040    2.3060 C   0  0  0  0  0  0  0  0  0  0  0  0
   30.8030   37.5220    2.9770 C   0  0  0  0  0  0  0  0  0  0  0  0
   31.5650   38.4160    2.0240 C   0  0  0  0  0  0  0  0  0  0  0  0
   30.8790   39.7120    2.0350 N   0  0  0  0  0  0  0  0  0  0  0  0
   30.1950   40.1720    0.9560 C   0  0  0  0  0  0  0  0  0  0  0  0
   29.8870   39.4610    0.0010 O   0  0  0  0  0  0  0  0  0  0  0  0
   31.4810   36.2790    3.1410 O   0  0  0  0  0  0  0  0  0  0  0  0
   33.0760   38.5650    2.3680 C   0  0  0  0  0  0  0  0  0  0  0  0
   29.8320   41.5880    1.0060 C   0  0  0  0  0  0  0  0  0  0  0  0
   30.7330   42.5670    1.4570 C   0  0  0  0  0  0  0  0  0  0  0  0
   30.3830   43.9310    1.5110 C   0  0  0  0  0  0  0  0  0  0  0  0
   29.0920   44.2990    1.0720 C   0  0  0  0  0  0  0  0  0  0  0  0
   28.1320   43.3290    0.6230 C   0  0  0  0  0  0  0  0  0  0  0  0
   28.5300   41.9660    0.5900 C   0  0  0  0  0  0  0  0  0  0  0  0
   31.3360   44.9360    2.0430 C   0  0  0  0  0  0  0  0  0  0  0  0
   26.7880   43.6240    0.3260 N   0  0  0  0  0  0  0  0  0  0  0  0
   31.4420   46.0700    1.6050 O   0  0  0  0  0  0  0  0  0  0  0  0
   26.1150   42.9320   -0.8000 C   0  0  0  0  0  0  0  0  0  0  0  0
   25.9620   44.8620    1.0060 S   0  0  0  0  0  0  0  0  0  0  0  0
   26.3100   46.3310    0.0220 C   0  0  0  0  0  0  0  0  0  0  0  0
   24.5520   44.5630    0.9080 O   0  0  0  0  0  0  0  0  0  0  0  0
   26.4980   45.1150    2.3010 O   0  0  0  0  0  0  0  0  0  0  0  0
   33.7200   40.0050    0.3100 C   0  0  0  0  0  0  0  0  0  0  0  0
   34.4600   41.0710   -0.2550 C   0  0  0  0  0  0  0  0  0  0  0  0
   35.2490   41.8810    0.5760 C   0  0  0  0  0  0  0  0  0  0  0  0
   35.3150   41.6660    1.9560 C   0  0  0  0  0  0  0  0  0  0  0  0
   34.5650   40.5900    2.5280 C   0  0  0  0  0  0  0  0  0  0  0  0
   33.7790   39.7520    1.7110 C   0  0  0  0  0  0  0  0  0  0  0  0
   32.1030   44.5090    3.0840 N   0  0  0  0  0  0  0  0  0  0  0  0
   33.0780   45.2910    3.8410 C   0  0  0  0  0  0  0  0  0  0  0  0
   34.4390   44.5080    3.8880 C   0  0  0  0  0  0  0  0  0  0  0  0
   32.5470   45.6460    5.1880 C   0  0  0  0  0  0  0  0  0  0  0  0
   32.1710   44.6650    6.1520 C   0  0  0  0  0  0  0  0  0  0  0  0
   31.7740   45.0460    7.4420 C   0  0  0  0  0  0  0  0  0  0  0  0
   31.6940   46.4230    7.7970 C   0  0  0  0  0  0  0  0  0  0  0  0
   31.9930   47.3820    6.8210 C   0  0  0  0  0  0  0  0  0  0  0  0
   32.4230   47.0030    5.5410 C   0  0  0  0  0  0  0  0  0  0  0  0
  2  1  1  0
  3  1  1  0
  3  2  1  0
  4  2  1  0
  5  4  1  0
  6  5  1  0
  7  6  1  0
 11  6  1  0
  8  7  1  0
 12  7  1  0
  9  8  1  0
 10  9  2  0
 13  9  1  0
 32 12  1  0
 14 13  2  0
 18 13  1  0
 15 14  1  0
 16 15  2  0
 19 15  1  0
 17 16  1  0
 18 17  2  0
 20 17  1  0
 21 19  2  0
 33 19  1  0
 22 20  1  0
 23 20  1  0
 24 23  1  0
 25 23  2  0
 26 23  2  0
 28 27  2  0
 32 27  1  0
 29 28  1  0
 30 29  2  0
 31 30  1  0
 32 31  2  0
 34 33  1  0
 35 34  1  0
 36 34  1  0
 37 36  2  0
 41 36  1  0
 38 37  1  0
 39 38  2  0
 40 39  1  0
 41 40  2  0
A    1
C1
A    2
C2
A    3
C3
A    4
N1
A    5
C4
A    6
C5
A    7
C6
A    8
N2
A    9
C7
A   10
O2
A   11
O3
A   12
C8
A   13
C9
A   14
C10
A   15
C11
A   16
C12
A   17
C13
A   18
C14
A   19
C15
A   20
N3
A   21
O4
A   22
C16
A   23
S1
A   24
C23
A   25
O5
A   26
O6
A   27
C24
A   28
C25
A   29
C26
A   30
C27
A   31
C28
A   32
C29
A   33
N4
A   34
C17
A   35
C18
A   36
C30
A   37
C31
A   38
C32
A   39
C33
A   40
C34
A   41
C35
M  END
>  <Id>  (6) 
2B8L_5HA_A_386

>  <ChainId>  (6) 
A

>  <AsymId>  (6) 
B

>  <SeqNum>  (6) 
386

>  <Name>  (6) 
N-[(1S,2R)-1-BENZYL-3-(CYCLOPROPYLAMINO)-2-HYDROXYPROPYL]-5-[METHYL(METHYLSULFONYL)AMINO]-N'-[(1R)-1-PHENYLETHYL]ISOPHTHALAMIDE

>  <SystematicName>  (6) 
N'-[(2S,3R)-4-(cyclopropylamino)-3-hydroxy-1-phenyl-butan-2-yl]-5-(methyl-methylsulfonyl-amino)-N-[(1R)-1-phenylethyl]benzene-1,3-dicarboxamide

>  <Synonyms>  (6) 


>  <Type>  (6) 
NON-POLYMER

>  <Formula>  (6) 
C31 H38 N4 O5 S

>  <ObservedFormula>  (6) 
C31 S N4 O5

>  <MolecularWeight>  (6) 
578.722

>  <ModifiedDate>  (6) 
2011-06-04

>  <Parent>  (6) 


>  <OneLetterCode>  (6) 


>  <SubcomponentList>  (6) 


>  <AmbiguousFlag>  (6) 
N

>  <InsertionCode>  (6) 


>  <InstanceId>  (6) 
2B8L_5HA_A_386

>  <ChemCompId>  (6) 
5HA

>  <PdbId>  (6) 
2B8L

>  <ResidueNumber>  (6) 
386

>  <InChI>  (6) 
InChI=1S/C31H38N4O5S/c1-21(23-12-8-5-9-13-23)33-30(37)24-17-25(19-27(18-24)35(2)41(3,39)40)31(38)34-28(16-22-10-6-4-7-11-22)29(36)20-32-26-14-15-26/h4-13,17-19,21,26,28-29,32,36H,14-16,20H2,1-3H3,(H,33,37)(H,34,38)/t21-,28+,29-/m1/s1

>  <InChIKey>  (6) 
VPNIQGRFZCTBEZ-SPTGULJVSA-N

>  <SMILES>  (6) 
C[C@H](c1ccccc1)NC(=O)c2cc(cc(c2)N(C)S(=O)(=O)C)C(=O)N[C@@H](Cc3ccccc3)[C@@H](CNC4CC4)O

>  <MissingHeavyAtoms>  (6) 
0

>  <Model>  (6) 
1

>  <AltIds>  (6) 


>  <pKI>  (6) 
6.63

>  <ChemblID>  (6) 
CHEMBL378225

>  <standardized_canonical_smiles>  (6) 
C[C@@H](NC(=O)c1cc(C(=O)N[C@@H](Cc2ccccc2)[C@H](O)CNC2CC2)cc(N(C)S(C)(=O)=O)c1)c1ccccc1

$$$$
3TPR_5HA_A_400
     RDKit          3D

 41 44  0  0  0  0  0  0  0  0999 V2000
   62.4840   47.5100    8.8550 C   0  0  0  0  0  0  0  0  0  0  0  0
   63.9690   47.2340    8.8690 C   0  0  0  0  0  0  0  0  0  0  0  0
   63.2960   47.9270   10.0700 C   0  0  0  0  0  0  0  0  0  0  0  0
   64.7250   48.1590    7.9970 N   0  0  0  0  0  0  0  0  0  0  0  0
   66.1490   47.9030    8.1500 C   0  0  0  0  0  0  0  0  0  0  0  0
   66.9020   49.0400    7.4850 C   0  0  0  0  0  0  0  0  0  0  0  0
   68.3160   48.9290    7.9120 C   0  0  0  0  0  0  0  0  0  0  0  0
   68.9510   47.6670    7.4500 N   0  0  0  0  0  0  0  0  0  0  0  0
   69.0490   46.6130    8.2860 C   0  0  0  0  0  0  0  0  0  0  0  0
   68.4160   46.5130    9.3430 O   0  0  0  0  0  0  0  0  0  0  0  0
   66.4040   50.3210    7.8760 O   0  0  0  0  0  0  0  0  0  0  0  0
   69.1060   50.0840    7.3980 C   0  0  0  0  0  0  0  0  0  0  0  0
   69.7340   45.3860    7.6610 C   0  0  0  0  0  0  0  0  0  0  0  0
   70.8140   45.5120    6.7860 C   0  0  0  0  0  0  0  0  0  0  0  0
   71.3810   44.3950    6.1890 C   0  0  0  0  0  0  0  0  0  0  0  0
   70.8670   43.1050    6.4020 C   0  0  0  0  0  0  0  0  0  0  0  0
   69.7930   42.9850    7.3240 C   0  0  0  0  0  0  0  0  0  0  0  0
   69.2210   44.1290    7.9310 C   0  0  0  0  0  0  0  0  0  0  0  0
   72.4900   44.6600    5.2300 C   0  0  0  0  0  0  0  0  0  0  0  0
   69.1290   41.8320    7.5980 N   0  0  0  0  0  0  0  0  0  0  0  0
   73.2230   43.8380    4.7480 O   0  0  0  0  0  0  0  0  0  0  0  0
   68.8930   41.4820    9.0270 C   0  0  0  0  0  0  0  0  0  0  0  0
   69.4040   40.4940    6.6800 S   0  0  0  0  0  0  0  0  0  0  0  0
   70.8840   39.6150    7.2220 C   0  0  0  0  0  0  0  0  0  0  0  0
   68.1800   39.6600    7.0080 O   0  0  0  0  0  0  0  0  0  0  0  0
   69.6080   40.7220    5.1880 O   0  0  0  0  0  0  0  0  0  0  0  0
   71.1640   49.8310    8.9030 C   0  0  0  0  0  0  0  0  0  0  0  0
   72.5400   49.6690    9.0700 C   0  0  0  0  0  0  0  0  0  0  0  0
   73.4090   49.5370    8.0020 C   0  0  0  0  0  0  0  0  0  0  0  0
   72.8550   49.5970    6.7460 C   0  0  0  0  0  0  0  0  0  0  0  0
   71.4890   49.7530    6.5610 C   0  0  0  0  0  0  0  0  0  0  0  0
   70.6300   49.8740    7.6230 C   0  0  0  0  0  0  0  0  0  0  0  0
   72.4590   45.8200    4.6560 N   0  0  0  0  0  0  0  0  0  0  0  0
   73.5010   46.0490    3.7000 C   0  0  0  0  0  0  0  0  0  0  0  0
   74.1180   47.3720    4.1460 C   0  0  0  0  0  0  0  0  0  0  0  0
   72.9050   46.0870    2.2980 C   0  0  0  0  0  0  0  0  0  0  0  0
   71.7060   46.7360    2.0440 C   0  0  0  0  0  0  0  0  0  0  0  0
   71.2190   46.7490    0.7050 C   0  0  0  0  0  0  0  0  0  0  0  0
   71.8930   46.1320   -0.3330 C   0  0  0  0  0  0  0  0  0  0  0  0
   73.0930   45.4900   -0.0540 C   0  0  0  0  0  0  0  0  0  0  0  0
   73.6030   45.4760    1.2530 C   0  0  0  0  0  0  0  0  0  0  0  0
  2  1  1  0
  3  1  1  0
  3  2  1  0
  4  2  1  0
  5  4  1  0
  6  5  1  0
  7  6  1  0
 11  6  1  0
  8  7  1  0
 12  7  1  0
  9  8  1  0
 10  9  2  0
 13  9  1  0
 32 12  1  0
 14 13  2  0
 18 13  1  0
 15 14  1  0
 16 15  2  0
 19 15  1  0
 17 16  1  0
 18 17  2  0
 20 17  1  0
 21 19  2  0
 33 19  1  0
 22 20  1  0
 23 20  1  0
 24 23  1  0
 25 23  2  0
 26 23  2  0
 28 27  2  0
 32 27  1  0
 29 28  1  0
 30 29  2  0
 31 30  1  0
 32 31  2  0
 34 33  1  0
 35 34  1  0
 36 34  1  0
 37 36  2  0
 41 36  1  0
 38 37  1  0
 39 38  2  0
 40 39  1  0
 41 40  2  0
A    1
C1
A    2
C2
A    3
C3
A    4
N1
A    5
C4
A    6
C5
A    7
C6
A    8
N2
A    9
C7
A   10
O2
A   11
O3
A   12
C8
A   13
C9
A   14
C10
A   15
C11
A   16
C12
A   17
C13
A   18
C14
A   19
C15
A   20
N3
A   21
O4
A   22
C16
A   23
S1
A   24
C23
A   25
O5
A   26
O6
A   27
C24
A   28
C25
A   29
C26
A   30
C27
A   31
C28
A   32
C29
A   33
N4
A   34
C17
A   35
C18
A   36
C30
A   37
C31
A   38
C32
A   39
C33
A   40
C34
A   41
C35
M  END
>  <Id>  (7) 
3TPR_5HA_A_400

>  <ChainId>  (7) 
A

>  <AsymId>  (7) 
B

>  <SeqNum>  (7) 
400

>  <Name>  (7) 
N-[(1S,2R)-1-BENZYL-3-(CYCLOPROPYLAMINO)-2-HYDROXYPROPYL]-5-[METHYL(METHYLSULFONYL)AMINO]-N'-[(1R)-1-PHENYLETHYL]ISOPHTHALAMIDE

>  <SystematicName>  (7) 
N'-[(2S,3R)-4-(cyclopropylamino)-3-hydroxy-1-phenyl-butan-2-yl]-5-(methyl-methylsulfonyl-amino)-N-[(1R)-1-phenylethyl]benzene-1,3-dicarboxamide

>  <Synonyms>  (7) 


>  <Type>  (7) 
NON-POLYMER

>  <Formula>  (7) 
C31 H38 N4 O5 S

>  <ObservedFormula>  (7) 
C31 S N4 O5

>  <MolecularWeight>  (7) 
578.722

>  <ModifiedDate>  (7) 
2011-06-04

>  <Parent>  (7) 


>  <OneLetterCode>  (7) 


>  <SubcomponentList>  (7) 


>  <AmbiguousFlag>  (7) 
N

>  <InsertionCode>  (7) 


>  <InstanceId>  (7) 
3TPR_5HA_A_400

>  <ChemCompId>  (7) 
5HA

>  <PdbId>  (7) 
3TPR

>  <ResidueNumber>  (7) 
400

>  <InChI>  (7) 
InChI=1S/C31H38N4O5S/c1-21(23-12-8-5-9-13-23)33-30(37)24-17-25(19-27(18-24)35(2)41(3,39)40)31(38)34-28(16-22-10-6-4-7-11-22)29(36)20-32-26-14-15-26/h4-13,17-19,21,26,28-29,32,36H,14-16,20H2,1-3H3,(H,33,37)(H,34,38)/t21-,28+,29-/m1/s1

>  <InChIKey>  (7) 
VPNIQGRFZCTBEZ-SPTGULJVSA-N

>  <SMILES>  (7) 
C[C@H](c1ccccc1)NC(=O)c2cc(cc(c2)N(C)S(=O)(=O)C)C(=O)N[C@@H](Cc3ccccc3)[C@@H](CNC4CC4)O

>  <MissingHeavyAtoms>  (7) 
0

>  <Model>  (7) 
1

>  <AltIds>  (7) 


>  <pKI>  (7) 
6.63

>  <ChemblID>  (7) 
CHEMBL378225

>  <standardized_canonical_smiles>  (7) 
C[C@@H](NC(=O)c1cc(C(=O)N[C@@H](Cc2ccccc2)[C@H](O)CNC2CC2)cc(N(C)S(C)(=O)=O)c1)c1ccccc1

$$$$
2Q11_XX4_C_503
     RDKit          3D

 31 34  0  0  0  0  0  0  0  0999 V2000
  159.6350  -37.9560   24.6180 C   0  0  0  0  0  0  0  0  0  0  0  0
  160.7170  -36.9740   24.7470 N   0  0  0  0  0  0  0  0  0  0  0  0
  160.4380  -35.6480   25.0650 C   0  0  0  0  0  0  0  0  0  0  0  0
  161.3440  -34.8370   25.1390 O   0  0  0  0  0  0  0  0  0  0  0  0
  159.0170  -35.1760   25.3000 C   0  0  0  0  0  0  0  0  0  0  0  0
  158.8930  -34.5000   26.6900 C   0  0  0  0  0  0  0  0  0  0  0  0
  159.9250  -35.0060   27.6380 N   0  0  0  0  0  0  0  0  0  0  0  0
  159.7380  -36.3560   28.3070 C   0  0  0  0  0  0  0  0  0  0  0  0
  161.0570  -36.8900   28.8780 C   0  0  0  0  0  0  0  0  0  0  0  0
  161.1540  -38.2070   29.3230 C   0  0  0  0  0  0  0  0  0  0  0  0
  162.3980  -38.6920   29.8600 C   0  0  0  0  0  0  0  0  0  0  0  0
  162.5150  -40.0940   30.3530 C   0  0  0  0  0  0  0  0  0  0  0  0
  162.6630  -40.2810   31.5480 O   0  0  0  0  0  0  0  0  0  0  0  0
  162.4450  -41.2800   29.4210 C   0  0  0  0  0  0  0  0  0  0  0  0
  162.3360  -41.1030   28.0000 C   0  0  0  0  0  0  0  0  0  0  0  0
  162.2670  -42.2280   27.1570 C   0  0  0  0  0  0  0  0  0  0  0  0
  162.3030  -43.5370   27.7060 C   0  0  0  0  0  0  0  0  0  0  0  0
  162.4100  -43.7210   29.0990 C   0  0  0  0  0  0  0  0  0  0  0  0
  162.4870  -42.6080   29.9570 C   0  0  0  0  0  0  0  0  0  0  0  0
  163.5240  -37.8200   29.9320 C   0  0  0  0  0  0  0  0  0  0  0  0
  163.4260  -36.5100   29.4910 C   0  0  0  0  0  0  0  0  0  0  0  0
  162.1990  -36.0190   28.9590 C   0  0  0  0  0  0  0  0  0  0  0  0
  162.1170  -34.7180   28.5360 N   0  0  0  0  0  0  0  0  0  0  0  0
  161.0570  -34.2180   27.9150 C   0  0  0  0  0  0  0  0  0  0  0  0
  161.0790  -32.9040   27.5310 N   0  0  0  0  0  0  0  0  0  0  0  0
  162.1170  -37.4260   24.5370 C   0  0  0  0  0  0  0  0  0  0  0  0
  162.7400  -36.7050   23.3050 C   0  0  0  0  0  0  0  0  0  0  0  0
  164.2180  -37.1110   23.1320 C   0  0  0  0  0  0  0  0  0  0  0  0
  165.0080  -36.7650   24.4130 C   0  0  0  0  0  0  0  0  0  0  0  0
  164.4330  -37.5600   25.6030 C   0  0  0  0  0  0  0  0  0  0  0  0
  162.9600  -37.1670   25.8300 C   0  0  0  0  0  0  0  0  0  0  0  0
  2  1  1  0
  3  2  1  0
 26  2  1  0
  4  3  2  0
  5  3  1  0
  6  5  1  0
  7  6  1  0
  8  7  1  0
 24  7  1  0
  9  8  1  0
 10  9  2  0
 22  9  1  0
 11 10  1  0
 12 11  1  0
 20 11  2  0
 13 12  2  0
 14 12  1  0
 15 14  2  0
 19 14  1  0
 16 15  1  0
 17 16  2  0
 18 17  1  0
 19 18  2  0
 21 20  1  0
 22 21  2  0
 23 22  1  0
 24 23  2  0
 25 24  1  0
 27 26  1  0
 31 26  1  0
 28 27  1  0
 29 28  1  0
 30 29  1  0
 31 30  1  0
A    1
C01
A    2
N02
A    3
C03
A    4
O04
A    5
C05
A    6
C06
A    7
N07
A    8
C08
A    9
C09
A   10
C10
A   11
C11
A   12
C12
A   13
O13
A   14
C14
A   15
C15
A   16
C16
A   17
C17
A   18
C18
A   19
C19
A   20
C20
A   21
C21
A   22
C22
A   23
N23
A   24
C24
A   25
N25
A   26
C26
A   27
C27
A   28
C28
A   29
C29
A   30
C30
A   31
C31
M  END
>  <Id>  (8) 
2Q11_XX4_C_503

>  <ChainId>  (8) 
C

>  <AsymId>  (8) 
F

>  <SeqNum>  (8) 
503

>  <Name>  (8) 
3-(2-AMINO-6-BENZOYLQUINAZOLIN-3(4H)-YL)-N-CYCLOHEXYL-N-METHYLPROPANAMIDE

>  <SystematicName>  (8) 
3-[2-amino-6-(phenylcarbonyl)-4H-quinazolin-3-yl]-N-cyclohexyl-N-methyl-propanamide

>  <Synonyms>  (8) 


>  <Type>  (8) 
NON-POLYMER

>  <Formula>  (8) 
C25 H30 N4 O2

>  <ObservedFormula>  (8) 
C25 N4 O2

>  <MolecularWeight>  (8) 
418.531

>  <ModifiedDate>  (8) 
2011-06-04

>  <Parent>  (8) 


>  <OneLetterCode>  (8) 


>  <SubcomponentList>  (8) 


>  <AmbiguousFlag>  (8) 


>  <InsertionCode>  (8) 


>  <InstanceId>  (8) 
2Q11_XX4_C_503

>  <ChemCompId>  (8) 
XX4

>  <PdbId>  (8) 
2Q11

>  <ResidueNumber>  (8) 
503

>  <InChI>  (8) 
InChI=1S/C25H30N4O2/c1-28(21-10-6-3-7-11-21)23(30)14-15-29-17-20-16-19(12-13-22(20)27-25(29)26)24(31)18-8-4-2-5-9-18/h2,4-5,8-9,12-13,16,21H,3,6-7,10-11,14-15,17H2,1H3,(H2,26,27)

>  <InChIKey>  (8) 
KTRFBFMYAJOXLG-UHFFFAOYSA-N

>  <SMILES>  (8) 
CN(C1CCCCC1)C(=O)CCN2Cc3cc(ccc3N=C2N)C(=O)c4ccccc4

>  <MissingHeavyAtoms>  (8) 
0

>  <Model>  (8) 
1

>  <AltIds>  (8) 


>  <pKI>  (8) 
6.05

>  <ChemblID>  (8) 
CHEMBL244342

>  <standardized_canonical_smiles>  (8) 
CN(C(=O)CCN1Cc2cc(C(=O)c3ccccc3)ccc2N=C1N)C1CCCCC1

$$$$
2Q15_3MR_A_386
     RDKit          3D

 37 41  0  0  0  0  0  0  0  0999 V2000
   72.9440   46.5280    7.9080 C   0  0  0  0  0  0  0  0  0  0  0  0
   71.6390   47.1820    7.9130 N   0  0  0  0  0  0  0  0  0  0  0  0
   70.5450   46.4070    8.2060 C   0  0  0  0  0  0  0  0  0  0  0  0
   70.6760   45.2200    8.4690 O   0  0  0  0  0  0  0  0  0  0  0  0
   69.1630   47.0130    8.2000 C   0  0  0  0  0  0  0  0  0  0  0  0
   68.0710   46.0970    8.7240 C   0  0  0  0  0  0  0  0  0  0  0  0
   66.7820   46.6280    8.0820 C   0  0  0  0  0  0  0  0  0  0  0  0
   65.5940   46.0060    8.8160 C   0  0  0  0  0  0  0  0  0  0  0  0
   64.3970   46.8590    8.4240 C   0  0  0  0  0  0  0  0  0  0  0  0
   63.0950   46.3500    9.0180 C   0  0  0  0  0  0  0  0  0  0  0  0
   62.8450   44.9020    8.5990 C   0  0  0  0  0  0  0  0  0  0  0  0
   64.0590   44.0910    9.0320 C   0  0  0  0  0  0  0  0  0  0  0  0
   65.3300   44.5750    8.3270 C   0  0  0  0  0  0  0  0  0  0  0  0
   66.6720   48.0860    8.2110 N   0  0  0  0  0  0  0  0  0  0  0  0
   66.4230   48.5630    9.5710 C   0  0  0  0  0  0  0  0  0  0  0  0
   67.3960   49.6950    9.8370 C   0  0  0  0  0  0  0  0  0  0  0  0
   67.9260   49.8730   11.1350 C   0  0  0  0  0  0  0  0  0  0  0  0
   68.8100   50.9270   11.3860 C   0  0  0  0  0  0  0  0  0  0  0  0
   69.3110   51.2060   12.6370 O   0  0  0  0  0  0  0  0  0  0  0  0
   70.5180   50.6750   12.9980 C   0  0  0  0  0  0  0  0  0  0  0  0
   71.0850   49.6390   12.2950 C   0  0  0  0  0  0  0  0  0  0  0  0
   72.2900   49.1130   12.6840 C   0  0  0  0  0  0  0  0  0  0  0  0
   72.9640   49.6180   13.7850 C   0  0  0  0  0  0  0  0  0  0  0  0
   72.3970   50.6470   14.4630 C   0  0  0  0  0  0  0  0  0  0  0  0
   71.1810   51.1870   14.1060 C   0  0  0  0  0  0  0  0  0  0  0  0
   69.0810   51.7950   10.3390 C   0  0  0  0  0  0  0  0  0  0  0  0
   68.5620   51.6150    9.0620 C   0  0  0  0  0  0  0  0  0  0  0  0
   67.7070   50.5580    8.7660 C   0  0  0  0  0  0  0  0  0  0  0  0
   67.2080   50.3360    7.4740 N   0  0  0  0  0  0  0  0  0  0  0  0
   66.8550   49.0520    7.1830 C   0  0  0  0  0  0  0  0  0  0  0  0
   66.6720   48.6580    5.8740 N   0  0  0  0  0  0  0  0  0  0  0  0
   71.5370   48.6230    7.6680 C   0  0  0  0  0  0  0  0  0  0  0  0
   72.8960   49.1760    7.3060 C   0  0  0  0  0  0  0  0  0  0  0  0
   72.7130   50.6730    7.3220 C   0  0  0  0  0  0  0  0  0  0  0  0
   71.8790   50.9280    6.0660 C   0  0  0  0  0  0  0  0  0  0  0  0
   70.4620   50.4540    6.3600 C   0  0  0  0  0  0  0  0  0  0  0  0
   70.5940   48.9600    6.5230 C   0  0  0  0  0  0  0  0  0  0  0  0
  2  1  1  0
  3  2  1  0
 32  2  1  0
  4  3  2  0
  5  3  1  0
  6  5  1  0
  7  6  1  0
  8  7  1  0
 14  7  1  0
  9  8  1  0
 13  8  1  0
 10  9  1  0
 11 10  1  0
 12 11  1  0
 13 12  1  0
 15 14  1  0
 30 14  1  0
 16 15  1  0
 17 16  2  0
 28 16  1  0
 18 17  1  0
 19 18  1  0
 26 18  2  0
 20 19  1  0
 21 20  2  0
 25 20  1  0
 22 21  1  0
 23 22  2  0
 24 23  1  0
 25 24  2  0
 27 26  1  0
 28 27  2  0
 29 28  1  0
 30 29  2  0
 31 30  1  0
 33 32  1  0
 37 32  1  0
 34 33  1  0
 35 34  1  0
 36 35  1  0
 37 36  1  0
A    1
C1
A    2
N2
A    3
C3
A    4
O4
A    5
C5
A    6
C6
A    7
C7
A    8
C9
A    9
C10
A   10
C11
A   11
C12
A   12
C13
A   13
C14
A   14
N15
A   15
C16
A   16
C17
A   17
C18
A   18
C19
A   19
O20
A   20
C21
A   21
C22
A   22
C23
A   23
C24
A   24
C25
A   25
C26
A   26
C27
A   27
C28
A   28
C29
A   29
N30
A   30
C31
A   31
N32
A   32
C33
A   33
C34
A   34
C35
A   35
C36
A   36
C37
A   37
C38
M  END
>  <Id>  (9) 
2Q15_3MR_A_386

>  <ChainId>  (9) 
A

>  <AsymId>  (9) 
B

>  <SeqNum>  (9) 
386

>  <Name>  (9) 
(4S)-4-(2-AMINO-6-PHENOXYQUINAZOLIN-3(4H)-YL)-N,4-DICYCLOHEXYL-N-METHYLBUTANAMIDE

>  <SystematicName>  (9) 
(4S)-4-(2-amino-6-phenoxy-4H-quinazolin-3-yl)-N,4-dicyclohexyl-N-methyl-butanamide

>  <Synonyms>  (9) 


>  <Type>  (9) 
NON-POLYMER

>  <Formula>  (9) 
C31 H42 N4 O2

>  <ObservedFormula>  (9) 
C31 N4 O2

>  <MolecularWeight>  (9) 
502.691

>  <ModifiedDate>  (9) 
2011-06-04

>  <Parent>  (9) 


>  <OneLetterCode>  (9) 


>  <SubcomponentList>  (9) 


>  <AmbiguousFlag>  (9) 


>  <InsertionCode>  (9) 


>  <InstanceId>  (9) 
2Q15_3MR_A_386

>  <ChemCompId>  (9) 
3MR

>  <PdbId>  (9) 
2Q15

>  <ResidueNumber>  (9) 
386

>  <InChI>  (9) 
InChI=1S/C31H42N4O2/c1-34(25-13-7-3-8-14-25)30(36)20-19-29(23-11-5-2-6-12-23)35-22-24-21-27(17-18-28(24)33-31(35)32)37-26-15-9-4-10-16-26/h4,9-10,15-18,21,23,25,29H,2-3,5-8,11-14,19-20,22H2,1H3,(H2,32,33)/t29-/m0/s1

>  <InChIKey>  (9) 
JKQCQYBXDQPJNC-LJAQVGFWSA-N

>  <SMILES>  (9) 
CN(C1CCCCC1)C(=O)CC[C@@H](C2CCCCC2)N3Cc4cc(ccc4N=C3N)Oc5ccccc5

>  <MissingHeavyAtoms>  (9) 
0

>  <Model>  (9) 
1

>  <AltIds>  (9) 


>  <pKI>  (9) 
7.89

>  <ChemblID>  (9) 
CHEMBL244347

>  <standardized_canonical_smiles>  (9) 
CN(C(=O)CC[C@@H](C1CCCCC1)N1Cc2cc(Oc3ccccc3)ccc2N=C1N)C1CCCCC1

$$$$
5MCO_BSD_A_501
     RDKit          3D

 47 50  0  0  0  0  0  0  0  0999 V2000
   44.5020  -29.9290  -32.2250 C   0  0  0  0  0  0  0  0  0  0  0  0
   43.9010  -29.3270  -33.3320 C   0  0  0  0  0  0  0  0  0  0  0  0
   43.0250  -30.0930  -34.1330 C   0  0  0  0  0  0  0  0  0  0  0  0
   42.7630  -31.4340  -33.7810 C   0  0  0  0  0  0  0  0  0  0  0  0
   43.3800  -32.0220  -32.6810 C   0  0  0  0  0  0  0  0  0  0  0  0
   44.2560  -31.2910  -31.9280 C   0  0  0  0  0  0  0  0  0  0  0  0
   44.8910  -31.9300  -30.7320 C   0  0  0  0  0  0  0  0  0  0  0  0
   46.3920  -31.8500  -30.8510 C   0  0  0  0  0  0  0  0  0  0  0  0
   44.5340  -31.1360  -29.5350 N   0  0  0  0  0  0  0  0  0  0  0  0
   43.7790  -31.5900  -28.5180 C   0  0  0  0  0  0  0  0  0  0  0  0
   43.3490  -32.7150  -28.5100 O   0  0  0  0  0  0  0  0  0  0  0  0
   43.4900  -30.7060  -27.3710 C   0  0  0  0  0  0  0  0  0  0  0  0
   42.2170  -30.6700  -26.8020 C   0  0  0  0  0  0  0  0  0  0  0  0
   42.0230  -29.7810  -25.7640 C   0  0  0  0  0  0  0  0  0  0  0  0
   43.0510  -28.9780  -25.2500 C   0  0  0  0  0  0  0  0  0  0  0  0
   44.3070  -28.9840  -25.8080 C   0  0  0  0  0  0  0  0  0  0  0  0
   44.5260  -29.8680  -26.8630 C   0  0  0  0  0  0  0  0  0  0  0  0
   40.7900  -29.7260  -25.1170 N   0  0  0  0  0  0  0  0  0  0  0  0
   40.7420  -29.4800  -23.6620 C   0  0  0  0  0  0  0  0  0  0  0  0
   39.3750  -29.9720  -25.9050 S   0  0  0  0  0  0  0  0  0  0  0  0
   38.4660  -29.1840  -25.1490 O   0  0  0  0  0  0  0  0  0  0  0  0
   39.5760  -29.6860  -27.3080 O   0  0  0  0  0  0  0  0  0  0  0  0
   39.1410  -31.7420  -25.5460 C   0  0  0  0  0  0  0  0  0  0  0  0
   45.4270  -28.1470  -25.3710 C   0  0  0  0  0  0  0  0  0  0  0  0
   45.7180  -27.9340  -24.1900 O   0  0  0  0  0  0  0  0  0  0  0  0
   46.1710  -27.6340  -26.3710 N   0  0  0  0  0  0  0  0  0  0  0  0
   47.3800  -26.8630  -26.0920 C   0  0  0  0  0  0  0  0  0  0  0  0
   48.5140  -27.4520  -26.9490 C   0  0  0  0  0  0  0  0  0  0  0  0
   48.5800  -28.9790  -27.0690 C   0  0  0  0  0  0  0  0  0  0  0  0
   48.4100  -29.8640  -26.0330 C   0  0  0  0  0  0  0  0  0  0  0  0
   48.4970  -31.2600  -26.2100 C   0  0  0  0  0  0  0  0  0  0  0  0
   48.8240  -31.8610  -27.4240 C   0  0  0  0  0  0  0  0  0  0  0  0
   49.0450  -30.9750  -28.4580 C   0  0  0  0  0  0  0  0  0  0  0  0
   48.9150  -29.5610  -28.2810 C   0  0  0  0  0  0  0  0  0  0  0  0
   47.1970  -25.3410  -26.2870 C   0  0  0  0  0  0  0  0  0  0  0  0
   48.4970  -24.7010  -26.2880 O   0  0  0  0  0  0  0  0  0  0  0  0
   46.3080  -24.7970  -25.1740 C   0  0  0  0  0  0  0  0  0  0  0  0
   46.2140  -23.3510  -25.3190 N   0  0  0  0  0  0  0  0  0  0  0  0
   45.7770  -22.7130  -24.0460 C   0  0  0  0  0  0  0  0  0  0  0  0
   46.8120  -22.9270  -22.9190 C   0  0  0  0  0  0  0  0  0  0  0  0
   48.1710  -22.6100  -23.1660 C   0  0  0  0  0  0  0  0  0  0  0  0
   49.1380  -22.8150  -22.2040 C   0  0  0  0  0  0  0  0  0  0  0  0
   48.7570  -23.3250  -20.9840 C   0  0  0  0  0  0  0  0  0  0  0  0
   47.4240  -23.6450  -20.7350 C   0  0  0  0  0  0  0  0  0  0  0  0
   46.4250  -23.4620  -21.6740 C   0  0  0  0  0  0  0  0  0  0  0  0
   50.4140  -22.4650  -22.4970 O   0  0  0  0  0  0  0  0  0  0  0  0
   51.4430  -22.8710  -21.5920 C   0  0  0  0  0  0  0  0  0  0  0  0
  2  1  2  0
  6  1  1  0
  3  2  1  0
  4  3  2  0
  5  4  1  0
  6  5  2  0
  7  6  1  0
  8  7  1  0
  9  7  1  0
 10  9  1  0
 11 10  2  0
 12 10  1  0
 13 12  2  0
 17 12  1  0
 14 13  1  0
 15 14  2  0
 18 14  1  0
 16 15  1  0
 17 16  2  0
 24 16  1  0
 19 18  1  0
 20 18  1  0
 21 20  2  0
 22 20  2  0
 23 20  1  0
 25 24  2  0
 26 24  1  0
 27 26  1  0
 28 27  1  0
 35 27  1  0
 29 28  1  0
 30 29  2  0
 34 29  1  0
 31 30  1  0
 32 31  2  0
 33 32  1  0
 34 33  2  0
 36 35  1  0
 37 35  1  0
 38 37  1  0
 39 38  1  0
 40 39  1  0
 41 40  2  0
 45 40  1  0
 42 41  1  0
 43 42  2  0
 46 42  1  0
 44 43  1  0
 45 44  2  0
 47 46  1  0
A    1
C11
A    2
C12
A    3
C13
A    4
C14
A    5
C15
A    6
C16
A    7
C17
A    8
C18
A    9
N21
A   10
C21
A   11
O21
A   12
C23
A   13
C24
A   14
C25
A   15
C26
A   16
C27
A   17
C28
A   18
N22
A   19
C29
A   20
S2
A   21
O23
A   22
O24
A   23
C20
A   24
C22
A   25
O22
A   26
N3
A   27
C31
A   28
C32
A   29
C33
A   30
C34
A   31
C35
A   32
C36
A   33
C37
A   34
C38
A   35
C39
A   36
O3
A   37
C30
A   38
N4
A   39
C41
A   40
C42
A   41
C43
A   42
C44
A   43
C45
A   44
C46
A   45
C47
A   46
O4
A   47
C48
M  END
>  <Id>  (10) 
5MCO_BSD_A_501

>  <ChainId>  (10) 
A

>  <AsymId>  (10) 
C

>  <SeqNum>  (10) 
501

>  <Name>  (10) 
N-{(1S,2R)-1-benzyl-2-hydroxy-3-[(3-methoxybenzyl)amino]propyl}-5-[methyl(methylsulfonyl)amino]-N'-[(1R)-1-phenylethyl]benzene-1,3-dicarboxamide

>  <SystematicName>  (10) 
N'-[(2S,3R)-3-hydroxy-4-[(3-methoxyphenyl)methylamino]-1-phenyl-butan-2-yl]-5-(methyl-methylsulfonyl-amino)-N-[(1R)-1-phenylethyl]benzene-1,3-dicarboxamide

>  <Synonyms>  (10) 


>  <Type>  (10) 
non-polymer

>  <Formula>  (10) 
C36 H42 N4 O6 S

>  <ObservedFormula>  (10) 
C36 S N4 O6

>  <MolecularWeight>  (10) 
658.807

>  <ModifiedDate>  (10) 
2011-06-04

>  <Parent>  (10) 


>  <OneLetterCode>  (10) 


>  <SubcomponentList>  (10) 


>  <AmbiguousFlag>  (10) 


>  <InsertionCode>  (10) 


>  <InstanceId>  (10) 
5MCO_BSD_A_501

>  <ChemCompId>  (10) 
BSD

>  <PdbId>  (10) 
5MCO

>  <ResidueNumber>  (10) 
501

>  <InChI>  (10) 
InChI=1S/C36H42N4O6S/c1-25(28-15-9-6-10-16-28)38-35(42)29-20-30(22-31(21-29)40(2)47(4,44)45)36(43)39-33(19-26-12-7-5-8-13-26)34(41)24-37-23-27-14-11-17-32(18-27)46-3/h5-18,20-22,25,33-34,37,41H,19,23-24H2,1-4H3,(H,38,42)(H,39,43)/t25-,33+,34-/m1/s1

>  <InChIKey>  (10) 
HIQWWDCRULXYDF-SWROZOJRSA-N

>  <SMILES>  (10) 
C[C@H](c1ccccc1)NC(=O)c2cc(cc(c2)[N@@](C)S(=O)(=O)C)C(=O)N[C@@H](Cc3ccccc3)[C@@H](CNCc4cccc(c4)OC)O

>  <MissingHeavyAtoms>  (10) 
0

>  <Model>  (10) 
1

>  <AltIds>  (10) 


>  <pKI>  (10) 
8.74

>  <ChemblID>  (10) 
CHEMBL403268

>  <standardized_canonical_smiles>  (10) 
COc1cccc(CNC[C@@H](O)[C@H](Cc2ccccc2)NC(=O)c2cc(C(=O)N[C@H](C)c3ccccc3)cc(N(C)S(C)(=O)=O)c2)c1

$$$$
2VKM_BSD_D_1386
     RDKit          3D

 47 50  0  0  0  0  0  0  0  0999 V2000
   27.4750   45.4580   34.9270 C   0  0  0  0  0  0  0  0  0  0  0  0
   26.7940   44.5450   35.7740 C   0  0  0  0  0  0  0  0  0  0  0  0
   27.5170   43.7980   36.7400 C   0  0  0  0  0  0  0  0  0  0  0  0
   28.9190   43.9580   36.8680 C   0  0  0  0  0  0  0  0  0  0  0  0
   29.6030   44.8690   36.0240 C   0  0  0  0  0  0  0  0  0  0  0  0
   28.8710   45.6320   35.0400 C   0  0  0  0  0  0  0  0  0  0  0  0
   29.5680   46.6150   34.0960 C   0  0  0  0  0  0  0  0  0  0  0  0
   30.2220   47.8230   34.7940 C   0  0  0  0  0  0  0  0  0  0  0  0
   30.6140   45.9000   33.3520 N   0  0  0  0  0  0  0  0  0  0  0  0
   30.6390   45.7580   32.0180 C   0  0  0  0  0  0  0  0  0  0  0  0
   29.7500   46.2580   31.3010 O   0  0  0  0  0  0  0  0  0  0  0  0
   31.7860   44.9620   31.4570 C   0  0  0  0  0  0  0  0  0  0  0  0
   31.5910   44.1340   30.3270 C   0  0  0  0  0  0  0  0  0  0  0  0
   32.6630   43.3540   29.7740 C   0  0  0  0  0  0  0  0  0  0  0  0
   33.9250   43.4440   30.3930 C   0  0  0  0  0  0  0  0  0  0  0  0
   34.1590   44.2620   31.5180 C   0  0  0  0  0  0  0  0  0  0  0  0
   33.0790   45.0050   32.0290 C   0  0  0  0  0  0  0  0  0  0  0  0
   32.4440   42.5260   28.5760 N   0  0  0  0  0  0  0  0  0  0  0  0
   33.5660   41.6360   28.1310 C   0  0  0  0  0  0  0  0  0  0  0  0
   30.9190   41.6270   28.4980 S   0  0  0  0  0  0  0  0  0  0  0  0
   31.1920   40.2220   27.8860 O   0  0  0  0  0  0  0  0  0  0  0  0
   30.2110   41.4310   29.9090 O   0  0  0  0  0  0  0  0  0  0  0  0
   29.8320   42.4560   27.3370 C   0  0  0  0  0  0  0  0  0  0  0  0
   35.5420   44.3040   32.1070 C   0  0  0  0  0  0  0  0  0  0  0  0
   36.5690   44.3230   31.3590 O   0  0  0  0  0  0  0  0  0  0  0  0
   35.6410   44.3160   33.4610 N   0  0  0  0  0  0  0  0  0  0  0  0
   36.8560   44.7480   34.2190 C   0  0  0  0  0  0  0  0  0  0  0  0
   36.4690   46.0000   35.0610 C   0  0  0  0  0  0  0  0  0  0  0  0
   35.5590   47.1160   34.5240 C   0  0  0  0  0  0  0  0  0  0  0  0
   35.7450   47.6690   33.2270 C   0  0  0  0  0  0  0  0  0  0  0  0
   34.8930   48.7090   32.7680 C   0  0  0  0  0  0  0  0  0  0  0  0
   33.8610   49.1990   33.6060 C   0  0  0  0  0  0  0  0  0  0  0  0
   33.6800   48.6420   34.9010 C   0  0  0  0  0  0  0  0  0  0  0  0
   34.5260   47.6040   35.3520 C   0  0  0  0  0  0  0  0  0  0  0  0
   37.3640   43.7140   35.2750 C   0  0  0  0  0  0  0  0  0  0  0  0
   38.5970   44.0900   35.8420 O   0  0  0  0  0  0  0  0  0  0  0  0
   37.5100   42.2310   34.8500 C   0  0  0  0  0  0  0  0  0  0  0  0
   38.1620   41.9070   33.5950 N   0  0  0  0  0  0  0  0  0  0  0  0
   39.3380   40.9760   33.6450 C   0  0  0  0  0  0  0  0  0  0  0  0
   40.5840   41.7010   33.1660 C   0  0  0  0  0  0  0  0  0  0  0  0
   41.4200   42.3290   34.1090 C   0  0  0  0  0  0  0  0  0  0  0  0
   42.5640   43.0520   33.6960 C   0  0  0  0  0  0  0  0  0  0  0  0
   42.8570   43.1360   32.3040 C   0  0  0  0  0  0  0  0  0  0  0  0
   42.0280   42.5020   31.3430 C   0  0  0  0  0  0  0  0  0  0  0  0
   40.8890   41.7850   31.7770 C   0  0  0  0  0  0  0  0  0  0  0  0
   43.4430   43.7000   34.5570 O   0  0  0  0  0  0  0  0  0  0  0  0
   43.3820   45.1040   34.8810 C   0  0  0  0  0  0  0  0  0  0  0  0
  2  1  2  0
  6  1  1  0
  3  2  1  0
  4  3  2  0
  5  4  1  0
  6  5  2  0
  7  6  1  0
  8  7  1  0
  9  7  1  0
 10  9  1  0
 11 10  2  0
 12 10  1  0
 13 12  2  0
 17 12  1  0
 14 13  1  0
 15 14  2  0
 18 14  1  0
 16 15  1  0
 17 16  2  0
 24 16  1  0
 19 18  1  0
 20 18  1  0
 21 20  2  0
 22 20  2  0
 23 20  1  0
 25 24  2  0
 26 24  1  0
 27 26  1  0
 28 27  1  0
 35 27  1  0
 29 28  1  0
 30 29  2  0
 34 29  1  0
 31 30  1  0
 32 31  2  0
 33 32  1  0
 34 33  2  0
 36 35  1  0
 37 35  1  0
 38 37  1  0
 39 38  1  0
 40 39  1  0
 41 40  2  0
 45 40  1  0
 42 41  1  0
 43 42  2  0
 46 42  1  0
 44 43  1  0
 45 44  2  0
 47 46  1  0
A    1
C11
A    2
C12
A    3
C13
A    4
C14
A    5
C15
A    6
C16
A    7
C17
A    8
C18
A    9
N21
A   10
C21
A   11
O21
A   12
C23
A   13
C24
A   14
C25
A   15
C26
A   16
C27
A   17
C28
A   18
N22
A   19
C29
A   20
S2
A   21
O23
A   22
O24
A   23
C20
A   24
C22
A   25
O22
A   26
N3
A   27
C31
A   28
C32
A   29
C33
A   30
C34
A   31
C35
A   32
C36
A   33
C37
A   34
C38
A   35
C39
A   36
O3
A   37
C30
A   38
N4
A   39
C41
A   40
C42
A   41
C43
A   42
C44
A   43
C45
A   44
C46
A   45
C47
A   46
O4
A   47
C48
M  END
>  <Id>  (11) 
2VKM_BSD_D_1386

>  <ChainId>  (11) 
D

>  <AsymId>  (11) 
H

>  <SeqNum>  (11) 
1386

>  <Name>  (11) 
N-{(1S,2R)-1-benzyl-2-hydroxy-3-[(3-methoxybenzyl)amino]propyl}-5-[methyl(methylsulfonyl)amino]-N'-[(1R)-1-phenylethyl]benzene-1,3-dicarboxamide

>  <SystematicName>  (11) 
N'-[(2S,3R)-3-hydroxy-4-[(3-methoxyphenyl)methylamino]-1-phenyl-butan-2-yl]-5-(methyl-methylsulfonyl-amino)-N-[(1R)-1-phenylethyl]benzene-1,3-dicarboxamide

>  <Synonyms>  (11) 


>  <Type>  (11) 
non-polymer

>  <Formula>  (11) 
C36 H42 N4 O6 S

>  <ObservedFormula>  (11) 
C36 S N4 O6

>  <MolecularWeight>  (11) 
658.807

>  <ModifiedDate>  (11) 
2011-06-04

>  <Parent>  (11) 


>  <OneLetterCode>  (11) 


>  <SubcomponentList>  (11) 


>  <AmbiguousFlag>  (11) 


>  <InsertionCode>  (11) 


>  <InstanceId>  (11) 
2VKM_BSD_D_1386

>  <ChemCompId>  (11) 
BSD

>  <PdbId>  (11) 
2VKM

>  <ResidueNumber>  (11) 
1386

>  <InChI>  (11) 
InChI=1S/C36H42N4O6S/c1-25(28-15-9-6-10-16-28)38-35(42)29-20-30(22-31(21-29)40(2)47(4,44)45)36(43)39-33(19-26-12-7-5-8-13-26)34(41)24-37-23-27-14-11-17-32(18-27)46-3/h5-18,20-22,25,33-34,37,41H,19,23-24H2,1-4H3,(H,38,42)(H,39,43)/t25-,33+,34-/m1/s1

>  <InChIKey>  (11) 
HIQWWDCRULXYDF-SWROZOJRSA-N

>  <SMILES>  (11) 
C[C@H](c1ccccc1)NC(=O)c2cc(cc(c2)[N@@](C)S(=O)(=O)C)C(=O)N[C@@H](Cc3ccccc3)[C@@H](CNCc4cccc(c4)OC)O

>  <MissingHeavyAtoms>  (11) 
0

>  <Model>  (11) 
1

>  <AltIds>  (11) 


>  <pKI>  (11) 
8.74

>  <ChemblID>  (11) 
CHEMBL403268

>  <standardized_canonical_smiles>  (11) 
COc1cccc(CNC[C@@H](O)[C@H](Cc2ccccc2)NC(=O)c2cc(C(=O)N[C@H](C)c3ccccc3)cc(N(C)S(C)(=O)=O)c2)c1

$$$$
3CKP_012_C_503
     RDKit          3D

 40 43  0  0  0  0  0  0  0  0999 V2000
   66.4130  -37.7410    7.3010 C   0  0  0  0  0  0  0  0  0  0  0  0
   66.5290  -38.7920    6.6640 O   0  0  0  0  0  0  0  0  0  0  0  0
   65.8760  -36.5740    6.8340 N   0  0  0  0  0  0  0  0  0  0  0  0
   65.3450  -36.4020    5.4760 C   0  0  0  0  0  0  0  0  0  0  0  0
   63.8010  -36.2760    5.5790 C   0  0  0  0  0  0  0  0  0  0  0  0
   63.1800  -37.4790    6.2660 C   0  0  0  0  0  0  0  0  0  0  0  0
   62.6140  -37.3620    7.5700 C   0  0  0  0  0  0  0  0  0  0  0  0
   63.1630  -38.7460    5.6270 C   0  0  0  0  0  0  0  0  0  0  0  0
   62.0460  -38.4880    8.2140 C   0  0  0  0  0  0  0  0  0  0  0  0
   62.5970  -39.8680    6.2730 C   0  0  0  0  0  0  0  0  0  0  0  0
   62.0370  -39.7420    7.5690 C   0  0  0  0  0  0  0  0  0  0  0  0
   65.9810  -35.1670    4.8050 C   0  0  0  0  0  0  0  0  0  0  0  0
   65.4420  -35.0500    3.5090 O   0  0  0  0  0  0  0  0  0  0  0  0
   67.5030  -35.2840    4.6970 C   0  0  0  0  0  0  0  0  0  0  0  0
   68.0070  -34.5500    3.5180 N   0  0  0  0  0  0  0  0  0  0  0  0
   69.3060  -35.0020    2.9770 C   0  0  0  0  0  0  0  0  0  0  0  0
   69.1890  -36.2580    2.1540 C   0  0  0  0  0  0  0  0  0  0  0  0
   69.6610  -37.5040    2.6600 C   0  0  0  0  0  0  0  0  0  0  0  0
   69.5480  -38.6840    1.8900 C   0  0  0  0  0  0  0  0  0  0  0  0
   68.9610  -38.6280    0.6070 C   0  0  0  0  0  0  0  0  0  0  0  0
   68.4810  -37.3900    0.0790 C   0  0  0  0  0  0  0  0  0  0  0  0
   68.6000  -36.2120    0.8630 C   0  0  0  0  0  0  0  0  0  0  0  0
   67.9090  -37.3450   -1.1760 N   0  0  0  0  0  0  0  0  0  0  0  0
   66.6910  -38.1050   -1.4540 C   0  0  0  0  0  0  0  0  0  0  0  0
   68.5100  -36.5420   -2.2510 C   0  0  0  0  0  0  0  0  0  0  0  0
   66.8620  -37.6500    8.7540 C   0  0  0  0  0  0  0  0  0  0  0  0
   67.1820  -36.2840    9.1640 N   0  0  0  0  0  0  0  0  0  0  0  0
   66.8410  -36.3400   10.5300 C   0  0  0  0  0  0  0  0  0  0  0  0
   67.0660  -35.3820   11.2570 O   0  0  0  0  0  0  0  0  0  0  0  0
   66.2480  -37.5360   11.0070 N   0  0  0  0  0  0  0  0  0  0  0  0
   65.8030  -38.1330    9.7440 C   0  0  0  0  0  0  0  0  0  0  0  0
   65.2330  -37.3720   12.1130 C   0  0  0  0  0  0  0  0  0  0  0  0
   63.8170  -36.9270   11.7880 C   0  0  0  0  0  0  0  0  0  0  0  0
   63.5450  -35.6140   11.3070 C   0  0  0  0  0  0  0  0  0  0  0  0
   62.2210  -35.2010   11.0100 C   0  0  0  0  0  0  0  0  0  0  0  0
   61.1480  -36.1170   11.1970 C   0  0  0  0  0  0  0  0  0  0  0  0
   61.4040  -37.4200   11.6750 C   0  0  0  0  0  0  0  0  0  0  0  0
   62.7310  -37.8220   11.9690 C   0  0  0  0  0  0  0  0  0  0  0  0
   62.0320  -33.8940   10.5470 O   0  0  0  0  0  0  0  0  0  0  0  0
   61.7890  -33.8200    9.1560 C   0  0  0  0  0  0  0  0  0  0  0  0
  2  1  2  0
  3  1  1  0
 26  1  1  0
  4  3  1  0
  5  4  1  0
 12  4  1  0
  6  5  1  0
  7  6  2  0
  8  6  1  0
  9  7  1  0
 10  8  2  0
 11  9  2  0
 11 10  1  0
 13 12  1  0
 14 12  1  0
 15 14  1  0
 16 15  1  0
 17 16  1  0
 18 17  2  0
 22 17  1  0
 19 18  1  0
 20 19  2  0
 21 20  1  0
 22 21  2  0
 23 21  1  0
 24 23  1  0
 25 23  1  0
 27 26  1  0
 31 26  1  0
 28 27  1  0
 29 28  2  0
 30 28  1  0
 31 30  1  0
 32 30  1  0
 33 32  1  0
 34 33  2  0
 38 33  1  0
 35 34  1  0
 36 35  2  0
 39 35  1  0
 37 36  1  0
 38 37  2  0
 40 39  1  0
A    1
C
A    2
O
A    3
N
A    4
CA
A    5
CB
A    6
CG
A    7
CD1
A    8
CD2
A    9
CE1
A   10
CE2
A   11
CZ
A   12
C1
A   13
OG
A   14
C2
A   15
N2
A   16
C20
A   17
C21
A   18
C22
A   19
C23
A   20
C24
A   21
C25
A   22
C26
A   23
N27
A   24
C28
A   25
C29
A   26
C30
A   27
N31
A   28
C32
A   29
O33
A   30
N34
A   31
C35
A   32
C36
A   33
C41
A   34
C42
A   35
C43
A   36
C44
A   37
C45
A   38
C46
A   39
O47
A   40
C48
M  END
>  <Id>  (12) 
3CKP_012_C_503

>  <ChainId>  (12) 
C

>  <AsymId>  (12) 
O

>  <SeqNum>  (12) 
503

>  <Name>  (12) 
(4S)-N-[(1S,2R)-1-benzyl-3-{[3-(dimethylamino)benzyl]amino}-2-hydroxypropyl]-1-(3-methoxybenzyl)-2-oxoimidazolidine-4-carboxamide

>  <SystematicName>  (12) 
(4S)-N-[(2S,3R)-4-[(3-dimethylaminophenyl)methylamino]-3-hydroxy-1-phenyl-butan-2-yl]-1-[(3-methoxyphenyl)methyl]-2-oxo-imidazolidine-4-carboxamide

>  <Synonyms>  (12) 
(S)-1-(3-methoxy-benzyl)-2-oxo-imidazolidine-4-carboxylic acid[(1S,2R)-1-benzyl-3-(3-dimethylamino-benzylamino)-2-hydroxy-propyl]-amide

>  <Type>  (12) 
NON-POLYMER

>  <Formula>  (12) 
C31 H39 N5 O4

>  <ObservedFormula>  (12) 
C31 N5 O4

>  <MolecularWeight>  (12) 
545.672

>  <ModifiedDate>  (12) 
2011-06-04

>  <Parent>  (12) 


>  <OneLetterCode>  (12) 


>  <SubcomponentList>  (12) 


>  <AmbiguousFlag>  (12) 
N

>  <InsertionCode>  (12) 


>  <InstanceId>  (12) 
3CKP_012_C_503

>  <ChemCompId>  (12) 
012

>  <PdbId>  (12) 
3CKP

>  <ResidueNumber>  (12) 
503

>  <InChI>  (12) 
InChI=1S/C31H39N5O4/c1-35(2)25-13-7-11-23(15-25)18-32-19-29(37)27(17-22-9-5-4-6-10-22)33-30(38)28-21-36(31(39)34-28)20-24-12-8-14-26(16-24)40-3/h4-16,27-29,32,37H,17-21H2,1-3H3,(H,33,38)(H,34,39)/t27-,28-,29+/m0/s1

>  <InChIKey>  (12) 
MCBWJRZWLSXSBN-YTCPBCGMSA-N

>  <SMILES>  (12) 
CN(C)c1cccc(c1)CNC[C@H]([C@H](Cc2ccccc2)NC(=O)[C@@H]3CN(C(=O)N3)Cc4cccc(c4)OC)O

>  <MissingHeavyAtoms>  (12) 
0

>  <Model>  (12) 
1

>  <AltIds>  (12) 


>  <pKI>  (12) 
6.35

>  <ChemblID>  (12) 
CHEMBL261655

>  <standardized_canonical_smiles>  (12) 
COc1cccc(CN2C[C@@H](C(=O)N[C@@H](Cc3ccccc3)[C@H](O)CNCc3cccc(N(C)C)c3)NC2=O)c1

$$$$
3CKR_009_C_503
     RDKit          3D

 45 49  0  0  0  0  0  0  0  0999 V2000
   66.7550  -38.4220    7.2260 C   0  0  0  0  0  0  0  0  0  0  0  0
   66.9880  -39.3950    6.5250 O   0  0  0  0  0  0  0  0  0  0  0  0
   66.1310  -37.2790    6.7960 N   0  0  0  0  0  0  0  0  0  0  0  0
   65.6270  -37.0290    5.4140 C   0  0  0  0  0  0  0  0  0  0  0  0
   64.0970  -36.7870    5.5100 C   0  0  0  0  0  0  0  0  0  0  0  0
   63.3830  -37.9670    6.1160 C   0  0  0  0  0  0  0  0  0  0  0  0
   62.4980  -37.7930    7.2040 C   0  0  0  0  0  0  0  0  0  0  0  0
   63.5980  -39.2810    5.6050 C   0  0  0  0  0  0  0  0  0  0  0  0
   61.8390  -38.9090    7.7780 C   0  0  0  0  0  0  0  0  0  0  0  0
   62.9440  -40.3970    6.1760 C   0  0  0  0  0  0  0  0  0  0  0  0
   62.0610  -40.2130    7.2670 C   0  0  0  0  0  0  0  0  0  0  0  0
   66.3470  -35.8170    4.7930 C   0  0  0  0  0  0  0  0  0  0  0  0
   65.7990  -35.6160    3.5040 O   0  0  0  0  0  0  0  0  0  0  0  0
   67.8590  -36.0390    4.6350 C   0  0  0  0  0  0  0  0  0  0  0  0
   68.1710  -35.9700    3.2000 N   0  0  0  0  0  0  0  0  0  0  0  0
   69.5610  -36.1800    2.7970 C   0  0  0  0  0  0  0  0  0  0  0  0
   69.6350  -37.0580    1.5660 C   0  0  0  0  0  0  0  0  0  0  0  0
   70.5660  -38.1290    1.4890 C   0  0  0  0  0  0  0  0  0  0  0  0
   70.6210  -38.9460    0.3360 C   0  0  0  0  0  0  0  0  0  0  0  0
   69.7490  -38.7040   -0.7570 C   0  0  0  0  0  0  0  0  0  0  0  0
   68.8090  -37.6360   -0.7050 C   0  0  0  0  0  0  0  0  0  0  0  0
   68.7620  -36.8210    0.4640 C   0  0  0  0  0  0  0  0  0  0  0  0
   67.9540  -37.3950   -1.7730 N   0  0  0  0  0  0  0  0  0  0  0  0
   66.8150  -38.2880   -2.0100 C   0  0  0  0  0  0  0  0  0  0  0  0
   68.1790  -36.2500   -2.6720 C   0  0  0  0  0  0  0  0  0  0  0  0
   67.1270  -38.3760    8.7480 C   0  0  0  0  0  0  0  0  0  0  0  0
   67.6540  -37.0420    9.0230 N   0  0  0  0  0  0  0  0  0  0  0  0
   67.1800  -36.6570   10.2200 C   0  0  0  0  0  0  0  0  0  0  0  0
   67.4280  -35.5780   10.7490 O   0  0  0  0  0  0  0  0  0  0  0  0
   66.3620  -37.6420   10.8430 N   0  0  0  0  0  0  0  0  0  0  0  0
   65.9020  -38.3990    9.6700 C   0  0  0  0  0  0  0  0  0  0  0  0
   65.3510  -37.1560   11.8300 C   0  0  0  0  0  0  0  0  0  0  0  0
   63.9590  -36.8280   11.3520 C   0  0  0  0  0  0  0  0  0  0  0  0
   63.6960  -35.6370   10.6250 C   0  0  0  0  0  0  0  0  0  0  0  0
   62.8890  -37.7130   11.6330 C   0  0  0  0  0  0  0  0  0  0  0  0
   61.5810  -37.4120   11.1920 C   0  0  0  0  0  0  0  0  0  0  0  0
   62.3910  -35.3330   10.1840 C   0  0  0  0  0  0  0  0  0  0  0  0
   61.3290  -36.2200   10.4670 C   0  0  0  0  0  0  0  0  0  0  0  0
   68.2180  -39.5010    9.0680 C   0  0  0  0  0  0  0  0  0  0  0  0
   67.7700  -41.3860   12.4640 C   0  0  0  0  0  0  0  0  0  0  0  0
   68.7330  -40.7420   13.2770 C   0  0  0  0  0  0  0  0  0  0  0  0
   69.5320  -39.7040   12.7380 C   0  0  0  0  0  0  0  0  0  0  0  0
   69.3700  -39.3060   11.3830 C   0  0  0  0  0  0  0  0  0  0  0  0
   68.4040  -39.9390   10.5420 C   0  0  0  0  0  0  0  0  0  0  0  0
   67.6060  -40.9880   11.1060 C   0  0  0  0  0  0  0  0  0  0  0  0
  2  1  2  0
  3  1  1  0
 26  1  1  0
  4  3  1  0
  5  4  1  0
 12  4  1  0
  6  5  1  0
  7  6  2  0
  8  6  1  0
  9  7  1  0
 10  8  2  0
 11  9  2  0
 11 10  1  0
 13 12  1  0
 14 12  1  0
 15 14  1  0
 16 15  1  0
 17 16  1  0
 18 17  2  0
 22 17  1  0
 19 18  1  0
 20 19  2  0
 21 20  1  0
 22 21  2  0
 23 21  1  0
 24 23  1  0
 25 23  1  0
 27 26  1  0
 31 26  1  0
 39 26  1  0
 28 27  1  0
 29 28  2  0
 30 28  1  0
 31 30  1  0
 32 30  1  0
 33 32  1  0
 34 33  2  0
 35 33  1  0
 37 34  1  0
 36 35  2  0
 38 36  1  0
 38 37  2  0
 44 39  1  0
 41 40  2  0
 45 40  1  0
 42 41  1  0
 43 42  2  0
 44 43  1  0
 45 44  2  0
A    1
C
A    2
O
A    3
N
A    4
CA
A    5
CB
A    6
CG
A    7
CD1
A    8
CD2
A    9
CE1
A   10
CE2
A   11
CZ
A   12
C1
A   13
OG
A   14
C2
A   15
N2
A   16
C20
A   17
C21
A   18
C22
A   19
C23
A   20
C24
A   21
C25
A   22
C26
A   23
N27
A   24
C28
A   25
C29
A   26
C30
A   27
N31
A   28
C32
A   29
O33
A   30
N34
A   31
C35
A   32
C36
A   33
C41
A   34
C42
A   35
C43
A   36
C44
A   37
C45
A   38
C46
A   39
C51
A   40
C52
A   41
C53
A   42
C54
A   43
C55
A   44
C56
A   45
C57
M  END
>  <Id>  (13) 
3CKR_009_C_503

>  <ChainId>  (13) 
C

>  <AsymId>  (13) 
F

>  <SeqNum>  (13) 
503

>  <Name>  (13) 
(4S)-1,4-dibenzyl-N-[(1S,2R)-1-benzyl-3-{[3-(dimethylamino)benzyl]amino}-2-hydroxypropyl]-2-oxoimidazolidine-4-carboxamide

>  <SystematicName>  (13) 
(4S)-N-[(2S,3R)-4-[(3-dimethylaminophenyl)methylamino]-3-hydroxy-1-phenyl-butan-2-yl]-2-oxo-1,4-bis(phenylmethyl)imidazolidine-4-carboxamide

>  <Synonyms>  (13) 


>  <Type>  (13) 
NON-POLYMER

>  <Formula>  (13) 
C37 H43 N5 O3

>  <ObservedFormula>  (13) 
C37 N5 O3

>  <MolecularWeight>  (13) 
605.769

>  <ModifiedDate>  (13) 
2011-06-04

>  <Parent>  (13) 


>  <OneLetterCode>  (13) 


>  <SubcomponentList>  (13) 


>  <AmbiguousFlag>  (13) 
N

>  <InsertionCode>  (13) 


>  <InstanceId>  (13) 
3CKR_009_C_503

>  <ChemCompId>  (13) 
009

>  <PdbId>  (13) 
3CKR

>  <ResidueNumber>  (13) 
503

>  <InChI>  (13) 
InChI=1S/C37H43N5O3/c1-41(2)32-20-12-19-31(21-32)24-38-25-34(43)33(22-28-13-6-3-7-14-28)39-35(44)37(23-29-15-8-4-9-16-29)27-42(36(45)40-37)26-30-17-10-5-11-18-30/h3-21,33-34,38,43H,22-27H2,1-2H3,(H,39,44)(H,40,45)/t33-,34+,37-/m0/s1

>  <InChIKey>  (13) 
DCJGHBWTJFHQCR-UEHMVRIRSA-N

>  <SMILES>  (13) 
CN(C)c1cccc(c1)CNC[C@H]([C@H](Cc2ccccc2)NC(=O)[C@@]3(CN(C(=O)N3)Cc4ccccc4)Cc5ccccc5)O

>  <MissingHeavyAtoms>  (13) 
0

>  <Model>  (13) 
1

>  <AltIds>  (13) 


>  <pKI>  (13) 
5.3

>  <ChemblID>  (13) 
CHEMBL406317

>  <standardized_canonical_smiles>  (13) 
CN(C)c1cccc(CNC[C@@H](O)[C@H](Cc2ccccc2)NC(=O)[C@]2(Cc3ccccc3)CN(Cc3ccccc3)C(=O)N2)c1

$$$$
3CIC_316_B_501
     RDKit          3D

 45 48  0  0  0  0  0  0  0  0999 V2000
   15.9680   29.4360   58.5490 C   0  0  0  0  0  0  0  0  0  0  0  0
   15.8560   30.6790   57.8660 C   0  0  0  0  0  0  0  0  0  0  0  0
   17.0310   31.4430   57.5830 C   0  0  0  0  0  0  0  0  0  0  0  0
   18.3090   30.9560   57.9780 C   0  0  0  0  0  0  0  0  0  0  0  0
   18.4190   29.7030   58.6560 C   0  0  0  0  0  0  0  0  0  0  0  0
   17.2440   28.9460   58.9420 C   0  0  0  0  0  0  0  0  0  0  0  0
   14.5300   31.1780   57.4830 C   0  0  0  0  0  0  0  0  0  0  0  0
   14.2890   31.4270   56.1640 N   0  0  0  0  0  0  0  0  0  0  0  0
   13.6670   31.3740   58.3210 O   0  0  0  0  0  0  0  0  0  0  0  0
   12.9650   31.9300   55.8290 C   0  0  0  0  0  0  0  0  0  0  0  0
   15.2560   31.2120   55.0870 C   0  0  0  0  0  0  0  0  0  0  0  0
   14.6950   30.1860   54.0880 C   0  0  0  0  0  0  0  0  0  0  0  0
   14.2060   28.9070   54.7830 C   0  0  0  0  0  0  0  0  0  0  0  0
   13.0510   33.3750   55.3170 C   0  0  0  0  0  0  0  0  0  0  0  0
   13.7960   34.3100   56.2720 C   0  0  0  0  0  0  0  0  0  0  0  0
   17.3420   27.6550   59.6460 C   0  0  0  0  0  0  0  0  0  0  0  0
   19.5080   31.7290   57.6610 C   0  0  0  0  0  0  0  0  0  0  0  0
   20.5770   31.1980   57.4040 O   0  0  0  0  0  0  0  0  0  0  0  0
   19.3400   33.0750   57.6590 N   0  0  0  0  0  0  0  0  0  0  0  0
   20.4870   33.9350   57.3150 C   0  0  0  0  0  0  0  0  0  0  0  0
   21.0090   34.7730   58.5100 C   0  0  0  0  0  0  0  0  0  0  0  0
   22.0230   35.6750   58.0470 O   0  0  0  0  0  0  0  0  0  0  0  0
   20.0820   34.8730   56.1680 C   0  0  0  0  0  0  0  0  0  0  0  0
   19.4000   34.1190   55.0460 C   0  0  0  0  0  0  0  0  0  0  0  0
   20.0820   33.0640   54.3750 C   0  0  0  0  0  0  0  0  0  0  0  0
   19.4420   32.3550   53.3190 C   0  0  0  0  0  0  0  0  0  0  0  0
   18.1170   32.7010   52.9300 C   0  0  0  0  0  0  0  0  0  0  0  0
   17.4350   33.7560   53.6000 C   0  0  0  0  0  0  0  0  0  0  0  0
   18.0730   34.4660   54.6580 C   0  0  0  0  0  0  0  0  0  0  0  0
   20.0850   31.3630   52.6920 F   0  0  0  0  0  0  0  0  0  0  0  0
   16.1940   34.0810   53.2350 F   0  0  0  0  0  0  0  0  0  0  0  0
   21.5940   33.9490   59.6620 C   0  0  0  0  0  0  0  0  0  0  0  0
   22.9010   33.2220   59.2480 C   0  0  0  0  0  0  0  0  0  0  0  0
   23.9370   33.2720   60.1370 N   0  0  0  0  0  0  0  0  0  0  0  0
   23.9410   33.9540   61.4420 C   0  0  0  0  0  0  0  0  0  0  0  0
   22.5610   34.3630   61.9140 C   0  0  0  0  0  0  0  0  0  0  0  0
   21.7720   34.8360   60.7980 N   0  0  0  0  0  0  0  0  0  0  0  0
   22.9750   32.6340   58.1730 O   0  0  0  0  0  0  0  0  0  0  0  0
   25.1990   32.6000   59.7880 C   0  0  0  0  0  0  0  0  0  0  0  0
   26.2560   33.6320   59.4430 C   0  0  0  0  0  0  0  0  0  0  0  0
   26.1390   34.4070   58.2520 C   0  0  0  0  0  0  0  0  0  0  0  0
   27.1290   35.3800   57.9300 C   0  0  0  0  0  0  0  0  0  0  0  0
   28.2390   35.5770   58.8050 C   0  0  0  0  0  0  0  0  0  0  0  0
   28.3580   34.8030   59.9990 C   0  0  0  0  0  0  0  0  0  0  0  0
   27.3670   33.8310   60.3170 C   0  0  0  0  0  0  0  0  0  0  0  0
  2  1  2  0
  6  1  1  0
  3  2  1  0
  7  2  1  0
  4  3  2  0
  5  4  1  0
 17  4  1  0
  6  5  2  0
 16  6  1  0
  8  7  1  0
  9  7  2  0
 10  8  1  0
 11  8  1  0
 14 10  1  0
 12 11  1  0
 13 12  1  0
 15 14  1  0
 18 17  2  0
 19 17  1  0
 20 19  1  0
 21 20  1  0
 23 20  1  0
 22 21  1  0
 32 21  1  0
 24 23  1  0
 25 24  2  0
 29 24  1  0
 26 25  1  0
 27 26  2  0
 30 26  1  0
 28 27  1  0
 29 28  2  0
 31 28  1  0
 33 32  1  0
 37 32  1  0
 34 33  1  0
 38 33  2  0
 35 34  1  0
 39 34  1  0
 36 35  1  0
 37 36  1  0
 40 39  1  0
 41 40  2  0
 45 40  1  0
 42 41  1  0
 43 42  2  0
 44 43  1  0
 45 44  2  0
A    1
C1
A    2
C2
A    3
C3
A    4
C4
A    5
C5
A    6
C6
A    7
C7
A    8
N1
A    9
O1
A   10
C8
A   11
C9
A   12
C10
A   13
C11
A   14
C12
A   15
C13
A   16
C14
A   17
C15
A   18
O2
A   19
N2
A   20
C16
A   21
C17
A   22
O3
A   23
C18
A   24
C19
A   25
C20
A   26
C21
A   27
C22
A   28
C23
A   29
C24
A   30
F1
A   31
F2
A   32
C25
A   33
C26
A   34
N4
A   35
C28
A   36
C29
A   37
N3
A   38
O4
A   39
C27
A   40
C31
A   41
C32
A   42
C33
A   43
C34
A   44
C35
A   45
C36
M  END
>  <Id>  (14) 
3CIC_316_B_501

>  <ChainId>  (14) 
B

>  <AsymId>  (14) 
E

>  <SeqNum>  (14) 
501

>  <Name>  (14) 
N'-[(1S,2S)-2-[(2S)-4-benzyl-3-oxopiperazin-2-yl]-1-(3,5-difluorobenzyl)-2-hydroxyethyl]-5-methyl-N,N-dipropylbenzene-1,3-dicarboxamide

>  <SystematicName>  (14) 
N-[(1S,2S)-3-(3,5-difluorophenyl)-1-hydroxy-1-[(2S)-3-oxo-4-(phenylmethyl)piperazin-2-yl]propan-2-yl]-5-methyl-N',N'-dipropyl-benzene-1,3-dicarboxamide

>  <Synonyms>  (14) 


>  <Type>  (14) 
NON-POLYMER

>  <Formula>  (14) 
C35 H42 F2 N4 O4

>  <ObservedFormula>  (14) 
C35 F2 N4 O4

>  <MolecularWeight>  (14) 
620.729

>  <ModifiedDate>  (14) 
2011-06-04

>  <Parent>  (14) 


>  <OneLetterCode>  (14) 


>  <SubcomponentList>  (14) 


>  <AmbiguousFlag>  (14) 
N

>  <InsertionCode>  (14) 


>  <InstanceId>  (14) 
3CIC_316_B_501

>  <ChemCompId>  (14) 
316

>  <PdbId>  (14) 
3CIC

>  <ResidueNumber>  (14) 
501

>  <InChI>  (14) 
InChI=1S/C35H42F2N4O4/c1-4-12-40(13-5-2)34(44)27-16-23(3)15-26(20-27)33(43)39-30(19-25-17-28(36)21-29(37)18-25)32(42)31-35(45)41(14-11-38-31)22-24-9-7-6-8-10-24/h6-10,15-18,20-21,30-32,38,42H,4-5,11-14,19,22H2,1-3H3,(H,39,43)/t30-,31-,32-/m0/s1

>  <InChIKey>  (14) 
XKXGRRZAMDHVGR-CPCREDONSA-N

>  <SMILES>  (14) 
CCCN(CCC)C(=O)c1cc(cc(c1)C(=O)N[C@@H](Cc2cc(cc(c2)F)F)[C@@H]([C@H]3C(=O)N(CCN3)Cc4ccccc4)O)C

>  <MissingHeavyAtoms>  (14) 
0

>  <Model>  (14) 
1

>  <AltIds>  (14) 


>  <pKI>  (14) 
8.52

>  <ChemblID>  (14) 
CHEMBL509210

>  <standardized_canonical_smiles>  (14) 
CCCN(CCC)C(=O)c1cc(C)cc(C(=O)N[C@@H](Cc2cc(F)cc(F)c2)[C@H](O)[C@@H]2NCCN(Cc3ccccc3)C2=O)c1

$$$$
2G94_ZPQ_D_4001
     RDKit          3D

 45 45  0  0  0  0  0  0  0  0999 V2000
   29.6820   46.7600   36.2440 C   0  0  0  0  0  0  0  0  0  0  0  0
   28.8060   45.5740   35.9510 C   0  0  0  0  0  0  0  0  0  0  0  0
   28.5710   45.6870   34.3860 N   0  0  0  0  0  0  0  0  0  0  0  0
   29.2740   46.8250   33.9830 N   0  0  0  0  0  0  0  0  0  0  0  0
   29.9350   47.4570   35.1180 C   0  0  0  0  0  0  0  0  0  0  0  0
   28.2340   44.5040   36.7950 C   0  0  0  0  0  0  0  0  0  0  0  0
   29.3710   47.3710   32.6090 C   0  0  0  0  0  0  0  0  0  0  0  0
   30.6820   47.3280   32.0920 O   0  0  0  0  0  0  0  0  0  0  0  0
   31.2220   46.1080   31.8030 C   0  0  0  0  0  0  0  0  0  0  0  0
   30.7830   48.7050   35.1060 C   0  0  0  0  0  0  0  0  0  0  0  0
   30.6180   45.0440   31.9220 O   0  0  0  0  0  0  0  0  0  0  0  0
   32.5080   46.1790   31.3700 N   0  0  0  0  0  0  0  0  0  0  0  0
   33.4140   45.1050   30.9820 C   0  0  0  0  0  0  0  0  0  0  0  0
   33.4970   45.1140   29.4220 C   0  0  0  0  0  0  0  0  0  0  0  0
   32.3430   44.0560   28.5670 S   0  0  0  0  0  0  0  0  0  0  0  0
   32.8660   43.7740   27.2360 O   0  0  0  0  0  0  0  0  0  0  0  0
   32.1000   42.8830   29.4020 O   0  0  0  0  0  0  0  0  0  0  0  0
   30.8840   45.0630   28.4360 C   0  0  0  0  0  0  0  0  0  0  0  0
   34.7120   45.5270   31.6060 C   0  0  0  0  0  0  0  0  0  0  0  0
   35.7040   45.7900   30.9450 O   0  0  0  0  0  0  0  0  0  0  0  0
   34.6880   45.6240   32.9890 N   0  0  0  0  0  0  0  0  0  0  0  0
   35.8900   46.0740   33.7260 C   0  0  0  0  0  0  0  0  0  0  0  0
   36.6790   44.9490   34.4540 C   0  0  0  0  0  0  0  0  0  0  0  0
   35.4790   47.2070   34.7180 C   0  0  0  0  0  0  0  0  0  0  0  0
   34.8820   48.4530   33.9830 C   0  0  0  0  0  0  0  0  0  0  0  0
   35.9180   49.1560   33.0670 C   0  0  0  0  0  0  0  0  0  0  0  0
   34.3800   49.4540   35.0280 C   0  0  0  0  0  0  0  0  0  0  0  0
   37.0610   43.8130   33.4860 C   0  0  0  0  0  0  0  0  0  0  0  0
   38.3820   43.1840   33.9130 C   0  0  0  0  0  0  0  0  0  0  0  0
   38.4300   41.7260   33.4290 C   0  0  0  0  0  0  0  0  0  0  0  0
   39.5720   43.9550   33.3070 C   0  0  0  0  0  0  0  0  0  0  0  0
   35.8690   44.3880   35.4720 O   0  0  0  0  0  0  0  0  0  0  0  0
   39.5570   44.3970   32.1830 O   0  0  0  0  0  0  0  0  0  0  0  0
   40.6570   44.0920   34.1420 N   0  0  0  0  0  0  0  0  0  0  0  0
   41.9080   44.7910   33.7310 C   0  0  0  0  0  0  0  0  0  0  0  0
   42.8390   45.0760   34.9730 C   0  0  0  0  0  0  0  0  0  0  0  0
   44.0530   45.9470   34.6050 C   0  0  0  0  0  0  0  0  0  0  0  0
   43.3510   43.7830   35.6040 C   0  0  0  0  0  0  0  0  0  0  0  0
   42.5620   43.8890   32.6580 C   0  0  0  0  0  0  0  0  0  0  0  0
   42.4660   42.6790   32.7370 O   0  0  0  0  0  0  0  0  0  0  0  0
   43.2380   44.5520   31.6390 N   0  0  0  0  0  0  0  0  0  0  0  0
   43.9270   43.8290   30.5420 C   0  0  0  0  0  0  0  0  0  0  0  0
   43.3180   44.1390   29.1480 C   0  0  0  0  0  0  0  0  0  0  0  0
   41.8170   43.8500   29.1130 C   0  0  0  0  0  0  0  0  0  0  0  0
   43.5500   45.6040   28.7850 C   0  0  0  0  0  0  0  0  0  0  0  0
  2  1  1  0
  5  1  2  0
  3  2  2  0
  6  2  1  0
  4  3  1  0
  5  4  1  0
  7  4  1  0
 10  5  1  0
  8  7  1  0
  9  8  1  0
 11  9  2  0
 12  9  1  0
 13 12  1  0
 14 13  1  0
 19 13  1  0
 15 14  1  0
 16 15  2  0
 17 15  2  0
 18 15  1  0
 20 19  2  0
 21 19  1  0
 22 21  1  0
 23 22  1  0
 24 22  1  0
 28 23  1  0
 32 23  1  0
 25 24  1  0
 26 25  1  0
 27 25  1  0
 29 28  1  0
 30 29  1  0
 31 29  1  0
 33 31  2  0
 34 31  1  0
 35 34  1  0
 36 35  1  0
 39 35  1  0
 37 36  1  0
 38 36  1  0
 40 39  2  0
 41 39  1  0
 42 41  1  0
 43 42  1  0
 44 43  1  0
 45 43  1  0
A    1
C11
A    2
C12
A    3
N11
A    4
N12
A    5
C13
A    6
C14
A    7
C15
A    8
O11
A    9
C16
A   10
C17
A   11
O12
A   12
N2
A   13
C21
A   14
C22
A   15
S2
A   16
O22
A   17
O23
A   18
C23
A   19
C25
A   20
O2
A   21
N3
A   22
C31
A   23
C32
A   24
C33
A   25
C34
A   26
C35
A   27
C36
A   28
C37
A   29
C38
A   30
C39
A   31
C30
A   32
O31
A   33
O32
A   34
N4
A   35
C41
A   36
C42
A   37
C43
A   38
C44
A   39
C45
A   40
O4
A   41
N5
A   42
C51
A   43
C52
A   44
C53
A   45
C54
M  END
>  <Id>  (15) 
2G94_ZPQ_D_4001

>  <ChainId>  (15) 
D

>  <AsymId>  (15) 
H

>  <SeqNum>  (15) 
4001

>  <Name>  (15) 
N~2~-[(2R,4S,5S)-5-{[N-{[(3,5-DIMETHYL-1H-PYRAZOL-1-YL)METHOXY]CARBONYL}-3-(METHYLSULFONYL)-L-ALANYL]AMINO}-4-HYDROXY-2,7-DIMETHYLOCTANOYL]-N-ISOBUTYL-L-VALINAMIDE

>  <SystematicName>  (15) 
(3,5-dimethylpyrazol-1-yl)methyl N-[(2R)-1-[[(4S,5S,7R)-5-hydroxy-2,7-dimethyl-8-[[(2S)-3-methyl-1-(2-methylpropylamino)-1-oxo-butan-2-yl]amino]-8-oxo-octan-4-yl]amino]-3-methylsulfonyl-1-oxo-propan-2-yl]carbamate

>  <Synonyms>  (15) 


>  <Type>  (15) 
NON-POLYMER

>  <Formula>  (15) 
C30 H54 N6 O8 S

>  <ObservedFormula>  (15) 
C30 S N6 O8

>  <MolecularWeight>  (15) 
658.85

>  <ModifiedDate>  (15) 
2011-06-04

>  <Parent>  (15) 


>  <OneLetterCode>  (15) 


>  <SubcomponentList>  (15) 


>  <AmbiguousFlag>  (15) 


>  <InsertionCode>  (15) 


>  <InstanceId>  (15) 
2G94_ZPQ_D_4001

>  <ChemCompId>  (15) 
ZPQ

>  <PdbId>  (15) 
2G94

>  <ResidueNumber>  (15) 
4001

>  <InChI>  (15) 
InChI=1S/C30H54N6O8S/c1-17(2)11-23(25(37)12-20(7)27(38)34-26(19(5)6)29(40)31-14-18(3)4)32-28(39)24(15-45(10,42)43)33-30(41)44-16-36-22(9)13-21(8)35-36/h13,17-20,23-26,37H,11-12,14-16H2,1-10H3,(H,31,40)(H,32,39)(H,33,41)(H,34,38)/t20-,23+,24+,25+,26+/m1/s1

>  <InChIKey>  (15) 
OFAZWNGNAATRSH-GWCXRDAXSA-N

>  <SMILES>  (15) 
Cc1cc(n(n1)COC(=O)N[C@@H](CS(=O)(=O)C)C(=O)N[C@@H](CC(C)C)[C@H](C[C@@H](C)C(=O)N[C@@H](C(C)C)C(=O)NCC(C)C)O)C

>  <MissingHeavyAtoms>  (15) 
0

>  <Model>  (15) 
1

>  <AltIds>  (15) 


>  <pKI>  (15) 
9.52

>  <ChemblID>  (15) 
CHEMBL448008

>  <standardized_canonical_smiles>  (15) 
Cc1cc(C)n(COC(=O)N[C@@H](CS(C)(=O)=O)C(=O)N[C@@H](CC(C)C)[C@@H](O)C[C@@H](C)C(=O)N[C@H](C(=O)NCC(C)C)C(C)C)n1

$$$$
3I25_MV7_C_531
     RDKit          3D

 63 66  0  0  0  0  0  0  0  0999 V2000
  -33.8450  -38.7870   31.9360 O   0  0  0  0  0  0  0  0  0  0  0  0
  -33.9770  -37.5910   31.8260 C   0  0  0  0  0  0  0  0  0  0  0  0
  -33.9370  -36.7480   32.8530 N   0  0  0  0  0  0  0  0  0  0  0  0
  -33.7320  -37.2300   34.2040 C   0  0  0  0  0  0  0  0  0  0  0  0
  -32.3350  -36.8440   34.6150 C   0  0  0  0  0  0  0  0  0  0  0  0
  -31.4650  -37.8290   35.1200 C   0  0  0  0  0  0  0  0  0  0  0  0
  -30.1510  -37.5330   35.5040 C   0  0  0  0  0  0  0  0  0  0  0  0
  -29.7000  -36.2120   35.3990 C   0  0  0  0  0  0  0  0  0  0  0  0
  -30.5670  -35.2290   34.9090 C   0  0  0  0  0  0  0  0  0  0  0  0
  -31.8610  -35.5280   34.5080 C   0  0  0  0  0  0  0  0  0  0  0  0
  -34.7830  -36.5730   35.0940 C   0  0  0  0  0  0  0  0  0  0  0  0
  -34.1620  -37.0740   30.4560 C   0  0  0  0  0  0  0  0  0  0  0  0
  -33.4900  -37.6820   29.4030 C   0  0  0  0  0  0  0  0  0  0  0  0
  -33.6670  -37.1810   28.1260 C   0  0  0  0  0  0  0  0  0  0  0  0
  -32.9950  -37.7220   27.0040 N   0  0  0  0  0  0  0  0  0  0  0  0
  -31.6040  -38.4130   27.0550 S   0  0  0  0  0  0  0  0  0  0  0  0
  -31.0010  -38.2130   25.7800 O   0  0  0  0  0  0  0  0  0  0  0  0
  -31.8370  -40.0890   27.2330 C   0  0  0  0  0  0  0  0  0  0  0  0
  -30.7760  -38.0270   28.1540 O   0  0  0  0  0  0  0  0  0  0  0  0
  -33.6630  -37.6350   25.7010 C   0  0  0  0  0  0  0  0  0  0  0  0
  -34.5170  -36.0880   27.9580 C   0  0  0  0  0  0  0  0  0  0  0  0
  -34.9720  -35.9930   30.2990 C   0  0  0  0  0  0  0  0  0  0  0  0
  -35.1270  -35.4770   29.0420 C   0  0  0  0  0  0  0  0  0  0  0  0
  -36.0240  -34.2790   28.9190 C   0  0  0  0  0  0  0  0  0  0  0  0
  -36.7710  -34.2180   27.9460 O   0  0  0  0  0  0  0  0  0  0  0  0
  -35.9070  -33.2990   29.8530 N   0  0  0  0  0  0  0  0  0  0  0  0
  -36.7780  -32.1110   29.8610 C   0  0  0  0  0  0  0  0  0  0  0  0
  -37.1410  -31.7870   31.3300 C   0  0  0  0  0  0  0  0  0  0  0  0
  -37.0620  -32.9250   32.1690 O   0  0  0  0  0  0  0  0  0  0  0  0
  -37.8420  -34.0530   32.0440 C   0  0  0  0  0  0  0  0  0  0  0  0
  -37.5480  -35.1600   32.8280 C   0  0  0  0  0  0  0  0  0  0  0  0
  -38.3220  -36.3280   32.6930 C   0  0  0  0  0  0  0  0  0  0  0  0
  -38.0070  -37.3800   33.4220 F   0  0  0  0  0  0  0  0  0  0  0  0
  -39.3560  -36.4280   31.7660 C   0  0  0  0  0  0  0  0  0  0  0  0
  -39.6380  -35.3040   30.9850 C   0  0  0  0  0  0  0  0  0  0  0  0
  -40.6550  -35.3270   30.1150 F   0  0  0  0  0  0  0  0  0  0  0  0
  -38.8960  -34.1200   31.1340 C   0  0  0  0  0  0  0  0  0  0  0  0
  -36.1610  -30.8730   29.2310 C   0  0  0  0  0  0  0  0  0  0  0  0
  -34.9640  -30.5340   29.9210 O   0  0  0  0  0  0  0  0  0  0  0  0
  -35.9000  -31.1580   27.7600 C   0  0  0  0  0  0  0  0  0  0  0  0
  -36.0570  -29.9030   26.9570 C   0  0  0  0  0  0  0  0  0  0  0  0
  -35.0850  -30.1060   25.9440 O   0  0  0  0  0  0  0  0  0  0  0  0
  -35.0150  -29.1950   24.8730 C   0  0  0  0  0  0  0  0  0  0  0  0
  -34.3440  -30.0590   23.8280 C   0  0  0  0  0  0  0  0  0  0  0  0
  -33.7740  -29.1840   22.8300 O   0  0  0  0  0  0  0  0  0  0  0  0
  -34.4850  -29.0880   21.5900 C   0  0  0  0  0  0  0  0  0  0  0  0
  -37.4520  -29.7620   26.4150 C   0  0  0  0  0  0  0  0  0  0  0  0
  -37.9600  -30.6660   25.7310 O   0  0  0  0  0  0  0  0  0  0  0  0
  -38.0490  -28.6140   26.6870 N   0  0  0  0  0  0  0  0  0  0  0  0
  -39.3890  -28.4230   26.1830 C   0  0  0  0  0  0  0  0  0  0  0  0
  -40.0190  -27.0180   26.3850 C   0  0  0  0  0  0  0  0  0  0  0  0
  -41.3760  -26.9890   27.0820 C   0  0  0  0  0  0  0  0  0  0  0  0
  -39.1130  -25.8380   26.6880 C   0  0  0  0  0  0  0  0  0  0  0  0
  -39.3420  -28.3970   24.6720 C   0  0  0  0  0  0  0  0  0  0  0  0
  -38.3540  -27.9460   24.0880 O   0  0  0  0  0  0  0  0  0  0  0  0
  -40.4710  -28.7720   24.0330 N   0  0  0  0  0  0  0  0  0  0  0  0
  -40.6580  -28.7840   22.5790 C   0  0  0  0  0  0  0  0  0  0  0  0
  -40.9730  -30.2010   22.1830 C   0  0  0  0  0  0  0  0  0  0  0  0
  -40.1290  -31.2320   22.5320 C   0  0  0  0  0  0  0  0  0  0  0  0
  -40.4420  -32.5430   22.1580 C   0  0  0  0  0  0  0  0  0  0  0  0
  -42.1540  -30.4650   21.4650 C   0  0  0  0  0  0  0  0  0  0  0  0
  -42.4880  -31.7700   21.0900 C   0  0  0  0  0  0  0  0  0  0  0  0
  -41.6190  -32.8030   21.4370 C   0  0  0  0  0  0  0  0  0  0  0  0
  2  1  2  0
  3  2  1  0
 12  2  1  0
  4  3  1  0
  5  4  1  0
 11  4  1  0
  6  5  2  0
 10  5  1  0
  7  6  1  0
  8  7  2  0
  9  8  1  0
 10  9  2  0
 13 12  2  0
 22 12  1  0
 14 13  1  0
 15 14  1  0
 21 14  2  0
 16 15  1  0
 20 15  1  0
 17 16  2  0
 18 16  1  0
 19 16  2  0
 23 21  1  0
 23 22  2  0
 24 23  1  0
 25 24  2  0
 26 24  1  0
 27 26  1  0
 28 27  1  0
 38 27  1  0
 29 28  1  0
 30 29  1  0
 31 30  2  0
 37 30  1  0
 32 31  1  0
 33 32  1  0
 34 32  2  0
 35 34  1  0
 36 35  1  0
 37 35  2  0
 39 38  1  0
 40 38  1  0
 41 40  1  0
 42 41  1  0
 47 41  1  0
 43 42  1  0
 44 43  1  0
 45 44  1  0
 46 45  1  0
 48 47  2  0
 49 47  1  0
 50 49  1  0
 51 50  1  0
 54 50  1  0
 52 51  1  0
 53 51  1  0
 55 54  2  0
 56 54  1  0
 57 56  1  0
 58 57  1  0
 59 58  2  0
 61 58  1  0
 60 59  1  0
 63 60  2  0
 62 61  2  0
 63 62  1  0
A    1
O10
A    2
C37
A    3
N5
A    4
C38
A    5
C40
A    6
C43
A    7
C44
A    8
C45
A    9
C42
A   10
C41
A   11
C39
A   12
C36
A   13
C34
A   14
C31
A   15
N4
A   16
S
A   17
O9
A   18
C33
A   19
O8
A   20
C32
A   21
C30
A   22
C35
A   23
C29
A   24
C28
A   25
O7
A   26
N3
A   27
C20
A   28
C21
A   29
O6
A   30
C22
A   31
C27
A   32
C26
A   33
F2
A   34
C25
A   35
C24
A   36
F1
A   37
C23
A   38
C19
A   39
O5
A   40
C18
A   41
C14
A   42
O3
A   43
C15
A   44
C16
A   45
O4
A   46
C17
A   47
C13
A   48
O2
A   49
N2
A   50
C9
A   51
C10
A   52
C12
A   53
C11
A   54
C1
A   55
O1
A   56
N1
A   57
C2
A   58
C3
A   59
C4
A   60
C5
A   61
C8
A   62
C7
A   63
C6
M  END
>  <Id>  (16) 
3I25_MV7_C_531

>  <ChainId>  (16) 
C

>  <AsymId>  (16) 
F

>  <SeqNum>  (16) 
531

>  <Name>  (16) 
N-[(2S,3S,5R)-1-(3,5-difluorophenoxy)-3-hydroxy-5-(2-methoxyethoxy)-6-[[(2S)-3-methyl-1-oxo-1-(phenylmethylamino)butan-2-yl]amino]-6-oxo-hexan-2-yl]-5-(methyl-methylsulfonyl-amino)-N'-[(1R)-1-phenylethyl]benzene-1,3-dicarboxamide

>  <SystematicName>  (16) 
N1-[(2S,3S,5R)-1-(3,5-difluorophenoxy)-3-hydroxy-5-(2-methoxyethoxy)-6-[[(2S)-3-methyl-1-oxo-1-(phenylmethylamino)butan-2-yl]amino]-6-oxo-hexan-2-yl]-5-[methyl(methylsulfonyl)amino]-N3-[(1R)-1-phenylethyl]benzene-1,3-dicarboxamide

>  <Synonyms>  (16) 
N-[(1S,2S,4R)-4-((S)-1-Benzylcarbamoyl-2-methyl-propylcarbamoyl)-1-(3,5-difluoro-phenoxymethyl)-2-hydroxy-4-(2-methoxy-ethoxy)-butyl]-5-(methanesulfonyl-methyl-amino)-N'-((R)-1-phenyl-ethyl)-isophthalamide

>  <Type>  (16) 
NON-POLYMER

>  <Formula>  (16) 
C45 H55 F2 N5 O10 S

>  <ObservedFormula>  (16) 
C45 S F2 N5 O10

>  <MolecularWeight>  (16) 
896.008

>  <ModifiedDate>  (16) 
2011-06-04

>  <Parent>  (16) 


>  <OneLetterCode>  (16) 


>  <SubcomponentList>  (16) 


>  <AmbiguousFlag>  (16) 
N

>  <InsertionCode>  (16) 


>  <InstanceId>  (16) 
3I25_MV7_C_531

>  <ChemCompId>  (16) 
MV7

>  <PdbId>  (16) 
3I25

>  <ResidueNumber>  (16) 
531

>  <InChI>  (16) 
InChI=1S/C45H55F2N5O10S/c1-28(2)41(45(57)48-26-30-13-9-7-10-14-30)51-44(56)40(61-18-17-60-5)25-39(53)38(27-62-37-23-34(46)22-35(47)24-37)50-43(55)33-19-32(20-36(21-33)52(4)63(6,58)59)42(54)49-29(3)31-15-11-8-12-16-31/h7-16,19-24,28-29,38-41,53H,17-18,25-27H2,1-6H3,(H,48,57)(H,49,54)(H,50,55)(H,51,56)/t29-,38+,39+,40-,41+/m1/s1

>  <InChIKey>  (16) 
RSTFVOGBJGGSOD-NDKACYJFSA-N

>  <SMILES>  (16) 
C[C@H](c1ccccc1)NC(=O)c2cc(cc(c2)N(C)S(=O)(=O)C)C(=O)N[C@@H](COc3cc(cc(c3)F)F)[C@H](C[C@H](C(=O)N[C@@H](C(C)C)C(=O)NCc4ccccc4)OCCOC)O

>  <MissingHeavyAtoms>  (16) 
0

>  <Model>  (16) 
1

>  <AltIds>  (16) 


>  <pKI>  (16) 
8.51

>  <ChemblID>  (16) 
CHEMBL591644

>  <standardized_canonical_smiles>  (16) 
COCCO[C@H](C[C@H](O)[C@H](COc1cc(F)cc(F)c1)NC(=O)c1cc(C(=O)N[C@H](C)c2ccccc2)cc(N(C)S(C)(=O)=O)c1)C(=O)N[C@H](C(=O)NCc1ccccc1)C(C)C

$$$$
3IXJ_586_C_500
     RDKit          3D

 60 63  0  0  0  0  0  0  0  0999 V2000
  -34.1630  -38.8640   31.4690 O   0  0  0  0  0  0  0  0  0  0  0  0
  -34.1640  -37.6520   31.3490 C   0  0  0  0  0  0  0  0  0  0  0  0
  -34.0490  -36.8170   32.3840 N   0  0  0  0  0  0  0  0  0  0  0  0
  -33.9020  -37.2560   33.7630 C   0  0  0  0  0  0  0  0  0  0  0  0
  -32.5140  -36.9440   34.2300 C   0  0  0  0  0  0  0  0  0  0  0  0
  -32.0130  -35.6360   34.2040 C   0  0  0  0  0  0  0  0  0  0  0  0
  -30.7090  -35.3640   34.6410 C   0  0  0  0  0  0  0  0  0  0  0  0
  -29.8990  -36.3910   35.1160 C   0  0  0  0  0  0  0  0  0  0  0  0
  -30.3910  -37.7010   35.1490 C   0  0  0  0  0  0  0  0  0  0  0  0
  -31.6970  -37.9690   34.7090 C   0  0  0  0  0  0  0  0  0  0  0  0
  -34.9410  -36.5500   34.6460 C   0  0  0  0  0  0  0  0  0  0  0  0
  -34.3010  -37.0920   29.9700 C   0  0  0  0  0  0  0  0  0  0  0  0
  -33.6310  -37.6560   28.9020 C   0  0  0  0  0  0  0  0  0  0  0  0
  -33.7570  -37.1260   27.6210 C   0  0  0  0  0  0  0  0  0  0  0  0
  -33.0720  -37.6870   26.5110 N   0  0  0  0  0  0  0  0  0  0  0  0
  -31.7330  -38.4590   26.6390 S   0  0  0  0  0  0  0  0  0  0  0  0
  -31.0230  -38.3160   25.4100 O   0  0  0  0  0  0  0  0  0  0  0  0
  -32.0380  -40.0940   26.8970 C   0  0  0  0  0  0  0  0  0  0  0  0
  -30.9360  -38.0130   27.7390 O   0  0  0  0  0  0  0  0  0  0  0  0
  -33.6710  -37.5350   25.1730 C   0  0  0  0  0  0  0  0  0  0  0  0
  -34.5910  -36.0180   27.4360 C   0  0  0  0  0  0  0  0  0  0  0  0
  -35.1050  -35.9940   29.7860 C   0  0  0  0  0  0  0  0  0  0  0  0
  -35.2440  -35.4490   28.5230 C   0  0  0  0  0  0  0  0  0  0  0  0
  -36.1580  -34.2650   28.4250 C   0  0  0  0  0  0  0  0  0  0  0  0
  -36.9830  -34.2460   27.5230 O   0  0  0  0  0  0  0  0  0  0  0  0
  -36.0550  -33.3040   29.3770 N   0  0  0  0  0  0  0  0  0  0  0  0
  -36.8950  -32.1330   29.4340 C   0  0  0  0  0  0  0  0  0  0  0  0
  -37.3470  -31.8590   30.8810 C   0  0  0  0  0  0  0  0  0  0  0  0
  -37.2480  -32.9820   31.7550 O   0  0  0  0  0  0  0  0  0  0  0  0
  -38.0790  -34.0780   31.5810 C   0  0  0  0  0  0  0  0  0  0  0  0
  -37.8080  -35.2480   32.2770 C   0  0  0  0  0  0  0  0  0  0  0  0
  -38.6190  -36.3680   32.0890 C   0  0  0  0  0  0  0  0  0  0  0  0
  -38.3460  -37.4930   32.7620 F   0  0  0  0  0  0  0  0  0  0  0  0
  -39.7020  -36.3370   31.2060 C   0  0  0  0  0  0  0  0  0  0  0  0
  -39.9870  -35.1660   30.5270 C   0  0  0  0  0  0  0  0  0  0  0  0
  -41.0370  -35.1320   29.7040 F   0  0  0  0  0  0  0  0  0  0  0  0
  -39.1820  -34.0330   30.7050 C   0  0  0  0  0  0  0  0  0  0  0  0
  -36.2600  -30.8630   28.8410 C   0  0  0  0  0  0  0  0  0  0  0  0
  -35.0220  -30.6030   29.5200 O   0  0  0  0  0  0  0  0  0  0  0  0
  -36.0140  -31.0300   27.3430 C   0  0  0  0  0  0  0  0  0  0  0  0
  -36.1570  -29.7570   26.5410 C   0  0  0  0  0  0  0  0  0  0  0  0
  -35.2640  -29.8380   25.4200 O   0  0  0  0  0  0  0  0  0  0  0  0
  -35.1750  -28.6340   24.6780 C   0  0  0  0  0  0  0  0  0  0  0  0
  -37.5730  -29.6370   26.0320 C   0  0  0  0  0  0  0  0  0  0  0  0
  -38.0760  -30.5410   25.3530 O   0  0  0  0  0  0  0  0  0  0  0  0
  -38.1960  -28.4940   26.3560 N   0  0  0  0  0  0  0  0  0  0  0  0
  -39.5560  -28.2300   25.9070 C   0  0  0  0  0  0  0  0  0  0  0  0
  -40.1560  -26.9780   26.5690 C   0  0  0  0  0  0  0  0  0  0  0  0
  -39.3680  -25.7170   26.2150 C   0  0  0  0  0  0  0  0  0  0  0  0
  -41.6380  -26.7800   26.2060 C   0  0  0  0  0  0  0  0  0  0  0  0
  -39.5770  -28.1160   24.3860 C   0  0  0  0  0  0  0  0  0  0  0  0
  -38.6260  -27.6200   23.7700 O   0  0  0  0  0  0  0  0  0  0  0  0
  -40.6830  -28.5890   23.7810 N   0  0  0  0  0  0  0  0  0  0  0  0
  -40.8580  -28.5480   22.3400 C   0  0  0  0  0  0  0  0  0  0  0  0
  -41.2990  -29.8950   21.8320 C   0  0  0  0  0  0  0  0  0  0  0  0
  -42.4560  -29.9870   21.0540 C   0  0  0  0  0  0  0  0  0  0  0  0
  -42.8880  -31.2270   20.5770 C   0  0  0  0  0  0  0  0  0  0  0  0
  -42.1470  -32.3730   20.8720 C   0  0  0  0  0  0  0  0  0  0  0  0
  -40.9960  -32.2840   21.6440 C   0  0  0  0  0  0  0  0  0  0  0  0
  -40.5680  -31.0430   22.1170 C   0  0  0  0  0  0  0  0  0  0  0  0
  2  1  2  0
  3  2  1  0
 12  2  1  0
  4  3  1  0
  5  4  1  0
 11  4  1  0
  6  5  2  0
 10  5  1  0
  7  6  1  0
  8  7  2  0
  9  8  1  0
 10  9  2  0
 13 12  2  0
 22 12  1  0
 14 13  1  0
 15 14  1  0
 21 14  2  0
 16 15  1  0
 20 15  1  0
 17 16  2  0
 18 16  1  0
 19 16  2  0
 23 21  1  0
 23 22  2  0
 24 23  1  0
 25 24  2  0
 26 24  1  0
 27 26  1  0
 28 27  1  0
 38 27  1  0
 29 28  1  0
 30 29  1  0
 31 30  2  0
 37 30  1  0
 32 31  1  0
 33 32  1  0
 34 32  2  0
 35 34  1  0
 36 35  1  0
 37 35  2  0
 39 38  1  0
 40 38  1  0
 41 40  1  0
 42 41  1  0
 44 41  1  0
 43 42  1  0
 45 44  2  0
 46 44  1  0
 47 46  1  0
 48 47  1  0
 51 47  1  0
 49 48  1  0
 50 48  1  0
 52 51  2  0
 53 51  1  0
 54 53  1  0
 55 54  1  0
 56 55  2  0
 60 55  1  0
 57 56  1  0
 58 57  2  0
 59 58  1  0
 60 59  2  0
A    1
O6
A    2
C34
A    3
N4
A    4
C35
A    5
C36
A    6
C42
A    7
C41
A    8
C40
A    9
C39
A   10
C38
A   11
C37
A   12
C30
A   13
C31
A   14
C32
A   15
N5
A   16
S
A   17
O8
A   18
C44
A   19
O7
A   20
C43
A   21
C33
A   22
C29
A   23
C27
A   24
C28
A   25
O5
A   26
N1
A   27
C5
A   28
C6
A   29
O2
A   30
C21
A   31
C26
A   32
C25
A   33
F54
A   34
C24
A   35
C23
A   36
F55
A   37
C22
A   38
C1
A   39
O1
A   40
C3
A   41
C2
A   42
O9
A   43
C45
A   44
C4
A   45
O3
A   46
N2
A   47
C8
A   48
C10
A   49
C12
A   50
C11
A   51
C9
A   52
O4
A   53
N3
A   54
C13
A   55
C14
A   56
C19
A   57
C18
A   58
C17
A   59
C16
A   60
C15
M  END
>  <Id>  (17) 
3IXJ_586_C_500

>  <ChainId>  (17) 
C

>  <AsymId>  (17) 
H

>  <SeqNum>  (17) 
500

>  <Name>  (17) 
N-[4-(1-BENZYLCARBAMOYL-2-METHYL-PROPYLCARBAMOYL)-1-(3,5-DIFLUORO-PHENOXYMETHYL)-2-HYDROXY-4-METHOXY-BUTYL]-5-(METHANESULFONYL-METHYL-AMINO)-N'-(1-PHENYLETHYL)-ISOPHTHALAMIDE

>  <SystematicName>  (17) 
N-[(2S,3S,5R)-1-(3,5-difluorophenoxy)-3-hydroxy-5-methoxy-6-[[(2S)-3-methyl-1-oxo-1-(phenylmethylamino)butan-2-yl]amino]-6-oxo-hexan-2-yl]-5-(methyl-methylsulfonyl-amino)-N'-[(1R)-1-phenylethyl]benzene-1,3-dicarboxamide

>  <Synonyms>  (17) 
N-{(1S,2S,4R)-5-{[(1S)-1-(benzylcarbamoyl)-2-methylpropyl]amino}-1-[(3,5-difluorophenoxy)methyl]-2-hydroxy-4-methoxy-5-oxopentyl}-5-[methyl(methylsulfonyl)amino]-N'-[(1R)-1-phenylethyl]benzene-1,3-dicarboxamide

>  <Type>  (17) 
NON-POLYMER

>  <Formula>  (17) 
C43 H51 F2 N5 O9 S

>  <ObservedFormula>  (17) 
C43 S F2 N5 O9

>  <MolecularWeight>  (17) 
851.955

>  <ModifiedDate>  (17) 
2011-06-04

>  <Parent>  (17) 


>  <OneLetterCode>  (17) 


>  <SubcomponentList>  (17) 


>  <AmbiguousFlag>  (17) 
N

>  <InsertionCode>  (17) 


>  <InstanceId>  (17) 
3IXJ_586_C_500

>  <ChemCompId>  (17) 
586

>  <PdbId>  (17) 
3IXJ

>  <ResidueNumber>  (17) 
500

>  <InChI>  (17) 
InChI=1S/C43H51F2N5O9S/c1-26(2)39(43(55)46-24-28-13-9-7-10-14-28)49-42(54)38(58-5)23-37(51)36(25-59-35-21-32(44)20-33(45)22-35)48-41(53)31-17-30(18-34(19-31)50(4)60(6,56)57)40(52)47-27(3)29-15-11-8-12-16-29/h7-22,26-27,36-39,51H,23-25H2,1-6H3,(H,46,55)(H,47,52)(H,48,53)(H,49,54)/t27-,36+,37+,38-,39+/m1/s1

>  <InChIKey>  (17) 
IEIHXPJWOSDLBU-VWMOWEEZSA-N

>  <SMILES>  (17) 
CC(C)[C@@H](C(=O)NCc1ccccc1)NC(=O)[C@@H](C[C@@H]([C@H](COc2cc(cc(c2)F)F)NC(=O)c3cc(cc(c3)N(C)S(=O)(=O)C)C(=O)N[C@H](C)c4ccccc4)O)OC

>  <MissingHeavyAtoms>  (17) 
0

>  <Model>  (17) 
1

>  <AltIds>  (17) 


>  <pKI>  (17) 
6.68

>  <ChemblID>  (17) 
CHEMBL601522

>  <standardized_canonical_smiles>  (17) 
CO[C@H](C[C@@H](O)[C@H](COc1cc(F)cc(F)c1)NC(=O)c1cc(C(=O)N[C@H](C)c2ccccc2)cc(N(C)S(C)(=O)=O)c1)C(=O)N[C@H](C(=O)NCc1ccccc1)C(C)C

$$$$
3LPI_Z74_B_456
     RDKit          3D

 46 49  0  0  0  0  0  0  0  0999 V2000
   16.3540   29.6100   59.2880 C   0  0  0  0  0  0  0  0  0  0  0  0
   16.4530   34.0180   53.7080 F   0  0  0  0  0  0  0  0  0  0  0  0
   19.6620   33.3450   58.3540 N   0  0  0  0  0  0  0  0  0  0  0  0
   25.0600   31.4090   59.2540 O   0  0  0  0  0  0  0  0  0  0  0  0
   25.4550   32.2270   60.3540 S   0  0  0  0  0  0  0  0  0  0  0  0
   16.2010   30.8170   58.5510 C   0  0  0  0  0  0  0  0  0  0  0  0
   20.4680   31.5110   53.3740 F   0  0  0  0  0  0  0  0  0  0  0  0
   14.5450   31.5240   56.7590 N   0  0  0  0  0  0  0  0  0  0  0  0
   25.9840   31.6140   61.5400 O   0  0  0  0  0  0  0  0  0  0  0  0
   17.3460   31.6060   58.2640 C   0  0  0  0  0  0  0  0  0  0  0  0
   23.9820   33.0320   60.8710 N   0  0  0  0  0  0  0  0  0  0  0  0
   13.9660   31.3010   58.9650 O   0  0  0  0  0  0  0  0  0  0  0  0
   18.6300   31.2010   58.7010 C   0  0  0  0  0  0  0  0  0  0  0  0
   22.0640   35.1930   61.4020 N   0  0  0  0  0  0  0  0  0  0  0  0
   20.9340   31.4860   58.2220 O   0  0  0  0  0  0  0  0  0  0  0  0
   18.7660   29.9920   59.4360 C   0  0  0  0  0  0  0  0  0  0  0  0
   22.1800   36.0620   58.6270 O   0  0  0  0  0  0  0  0  0  0  0  0
   17.6330   29.1880   59.7360 C   0  0  0  0  0  0  0  0  0  0  0  0
   19.8360   31.9960   58.4120 C   0  0  0  0  0  0  0  0  0  0  0  0
   14.8400   31.2240   58.1090 C   0  0  0  0  0  0  0  0  0  0  0  0
   13.3050   32.3180   56.5060 C   0  0  0  0  0  0  0  0  0  0  0  0
   15.3570   31.1070   55.5650 C   0  0  0  0  0  0  0  0  0  0  0  0
   14.6940   29.9910   54.7370 C   0  0  0  0  0  0  0  0  0  0  0  0
   14.4890   28.6930   55.5350 C   0  0  0  0  0  0  0  0  0  0  0  0
   13.5900   33.7270   55.9430 C   0  0  0  0  0  0  0  0  0  0  0  0
   14.1700   34.6940   56.9790 C   0  0  0  0  0  0  0  0  0  0  0  0
   17.7810   27.9060   60.5160 C   0  0  0  0  0  0  0  0  0  0  0  0
   20.7280   34.2670   57.9030 C   0  0  0  0  0  0  0  0  0  0  0  0
   21.2180   35.1260   59.0910 C   0  0  0  0  0  0  0  0  0  0  0  0
   21.8710   34.3080   60.2270 C   0  0  0  0  0  0  0  0  0  0  0  0
   20.1730   35.1290   56.7280 C   0  0  0  0  0  0  0  0  0  0  0  0
   19.5750   34.2970   55.6040 C   0  0  0  0  0  0  0  0  0  0  0  0
   20.3270   33.2510   54.9830 C   0  0  0  0  0  0  0  0  0  0  0  0
   19.7460   32.4890   53.9430 C   0  0  0  0  0  0  0  0  0  0  0  0
   18.4300   32.7280   53.4880 C   0  0  0  0  0  0  0  0  0  0  0  0
   17.7000   33.7640   54.1120 C   0  0  0  0  0  0  0  0  0  0  0  0
   18.2470   34.5480   55.1570 C   0  0  0  0  0  0  0  0  0  0  0  0
   23.2320   33.7010   59.8000 C   0  0  0  0  0  0  0  0  0  0  0  0
   24.0680   33.8700   62.1080 C   0  0  0  0  0  0  0  0  0  0  0  0
   22.7220   34.4930   62.5370 C   0  0  0  0  0  0  0  0  0  0  0  0
   26.5400   33.5340   59.8000 C   0  0  0  0  0  0  0  0  0  0  0  0
   26.5300   33.9200   58.4340 C   0  0  0  0  0  0  0  0  0  0  0  0
   27.3860   34.9620   57.9880 C   0  0  0  0  0  0  0  0  0  0  0  0
   28.2470   35.6120   58.9070 C   0  0  0  0  0  0  0  0  0  0  0  0
   28.2540   35.2230   60.2700 C   0  0  0  0  0  0  0  0  0  0  0  0
   27.4010   34.1830   60.7200 C   0  0  0  0  0  0  0  0  0  0  0  0
  6  1  2  0
 18  1  1  0
 36  2  1  0
 19  3  1  0
 28  3  1  0
  5  4  2  0
  9  5  2  0
 11  5  1  0
 41  5  1  0
 10  6  1  0
 20  6  1  0
 34  7  1  0
 20  8  1  0
 21  8  1  0
 22  8  1  0
 13 10  2  0
 38 11  1  0
 39 11  1  0
 20 12  2  0
 16 13  1  0
 19 13  1  0
 30 14  1  0
 40 14  1  0
 19 15  2  0
 18 16  2  0
 29 17  1  0
 27 18  1  0
 25 21  1  0
 23 22  1  0
 24 23  1  0
 26 25  1  0
 29 28  1  0
 31 28  1  0
 30 29  1  0
 38 30  1  0
 32 31  1  0
 33 32  2  0
 37 32  1  0
 34 33  1  0
 35 34  2  0
 36 35  1  0
 37 36  2  0
 40 39  1  0
 42 41  2  0
 46 41  1  0
 43 42  1  0
 44 43  2  0
 45 44  1  0
 46 45  2  0
A    1
C1
A    2
F1
A    3
N1
A    4
O1
A    5
S1
A    6
C2
A    7
F2
A    8
N2
A    9
O2
A   10
C3
A   11
N3
A   12
O3
A   13
C4
A   14
N4
A   15
O4
A   16
C5
A   17
O5
A   18
C6
A   19
C7
A   20
C8
A   21
C9
A   22
C10
A   23
C11
A   24
C12
A   25
C13
A   26
C14
A   27
C15
A   28
C16
A   29
C17
A   30
C18
A   31
C19
A   32
C20
A   33
C21
A   34
C22
A   35
C23
A   36
C24
A   37
C25
A   38
C26
A   39
C27
A   40
C28
A   41
C29
A   42
C30
A   43
C31
A   44
C32
A   45
C33
A   46
C34
M  END
>  <Id>  (18) 
3LPI_Z74_B_456

>  <ChainId>  (18) 
B

>  <AsymId>  (18) 
F

>  <SeqNum>  (18) 
456

>  <Name>  (18) 
N'-{(1S,2S)-1-(3,5-difluorobenzyl)-2-hydroxy-2-[(2R)-4-(phenylsulfonyl)piperazin-2-yl]ethyl}-5-methyl-N,N-dipropylbenzene-1,3-dicarboxamide

>  <SystematicName>  (18) 
N1-[(1S,2S)-3-(3,5-difluorophenyl)-1-hydroxy-1-[(2R,4S)-4-(phenylsulfonyl)piperazin-2-yl]propan-2-yl]-5-methyl-N3,N3-dipropyl-benzene-1,3-dicarboxamide

>  <Synonyms>  (18) 


>  <Type>  (18) 
NON-POLYMER

>  <Formula>  (18) 
C34 H42 F2 N4 O5 S

>  <ObservedFormula>  (18) 
C34 S F2 N4 O5

>  <MolecularWeight>  (18) 
656.783

>  <ModifiedDate>  (18) 
2011-06-04

>  <Parent>  (18) 


>  <OneLetterCode>  (18) 


>  <SubcomponentList>  (18) 


>  <AmbiguousFlag>  (18) 
N

>  <InsertionCode>  (18) 


>  <InstanceId>  (18) 
3LPI_Z74_B_456

>  <ChemCompId>  (18) 
Z74

>  <PdbId>  (18) 
3LPI

>  <ResidueNumber>  (18) 
456

>  <InChI>  (18) 
InChI=1S/C34H42F2N4O5S/c1-4-12-39(13-5-2)34(43)26-16-23(3)15-25(20-26)33(42)38-30(19-24-17-27(35)21-28(36)18-24)32(41)31-22-40(14-11-37-31)46(44,45)29-9-7-6-8-10-29/h6-10,15-18,20-21,30-32,37,41H,4-5,11-14,19,22H2,1-3H3,(H,38,42)/t30-,31+,32-/m0/s1

>  <InChIKey>  (18) 
KDRUCCZCGHVXGH-QAXCHELISA-N

>  <SMILES>  (18) 
CCCN(CCC)C(=O)c1cc(cc(c1)C(=O)N[C@@H](Cc2cc(cc(c2)F)F)[C@@H]([C@H]3C[N@](CCN3)S(=O)(=O)c4ccccc4)O)C

>  <MissingHeavyAtoms>  (18) 
0

>  <Model>  (18) 
1

>  <AltIds>  (18) 


>  <pKI>  (18) 
8.52

>  <ChemblID>  (18) 
CHEMBL1097319

>  <standardized_canonical_smiles>  (18) 
CCCN(CCC)C(=O)c1cc(C)cc(C(=O)N[C@@H](Cc2cc(F)cc(F)c2)[C@H](O)[C@H]2CN(S(=O)(=O)c3ccccc3)CCN2)c1

$$$$
3LPK_Z76_B_456
     RDKit          3D

 48 52  0  0  0  0  0  0  0  0999 V2000
   16.3380   29.9440   59.3520 C   0  0  0  0  0  0  0  0  0  0  0  0
   16.4880   34.3580   53.6450 F   0  0  0  0  0  0  0  0  0  0  0  0
   14.6870   31.7010   56.7660 N   0  0  0  0  0  0  0  0  0  0  0  0
   13.9420   31.8180   58.9030 O   0  0  0  0  0  0  0  0  0  0  0  0
   25.4030   32.4420   60.2800 S   0  0  0  0  0  0  0  0  0  0  0  0
   16.1930   31.1260   58.5690 C   0  0  0  0  0  0  0  0  0  0  0  0
   20.5650   31.9250   53.1430 F   0  0  0  0  0  0  0  0  0  0  0  0
   19.5810   33.6010   58.2020 N   0  0  0  0  0  0  0  0  0  0  0  0
   20.9150   31.7910   58.0640 O   0  0  0  0  0  0  0  0  0  0  0  0
   17.3510   31.8910   58.2300 C   0  0  0  0  0  0  0  0  0  0  0  0
   22.0100   35.3910   61.3010 N   0  0  0  0  0  0  0  0  0  0  0  0
   22.1480   36.2830   58.5610 O   0  0  0  0  0  0  0  0  0  0  0  0
   18.6400   31.4830   58.6600 C   0  0  0  0  0  0  0  0  0  0  0  0
   23.9340   33.2740   60.7670 N   0  0  0  0  0  0  0  0  0  0  0  0
   18.7840   30.2990   59.4410 C   0  0  0  0  0  0  0  0  0  0  0  0
   13.8200   34.1800   57.5000 O   0  0  0  0  0  0  0  0  0  0  0  0
   17.6320   29.5300   59.7880 C   0  0  0  0  0  0  0  0  0  0  0  0
   25.9020   31.8180   61.4680 O   0  0  0  0  0  0  0  0  0  0  0  0
   14.8600   31.5680   58.1210 C   0  0  0  0  0  0  0  0  0  0  0  0
   25.0210   31.6440   59.1550 O   0  0  0  0  0  0  0  0  0  0  0  0
   13.3920   32.1410   56.2530 C   0  0  0  0  0  0  0  0  0  0  0  0
   15.6680   31.4370   55.7180 C   0  0  0  0  0  0  0  0  0  0  0  0
   14.8820   31.2530   54.4370 C   0  0  0  0  0  0  0  0  0  0  0  0
   13.4370   31.5480   54.8370 C   0  0  0  0  0  0  0  0  0  0  0  0
   13.4670   33.6750   56.2210 C   0  0  0  0  0  0  0  0  0  0  0  0
   17.7810   28.3070   60.5960 C   0  0  0  0  0  0  0  0  0  0  0  0
   19.8120   32.2780   58.2880 C   0  0  0  0  0  0  0  0  0  0  0  0
   20.7030   34.4680   57.8210 C   0  0  0  0  0  0  0  0  0  0  0  0
   21.1770   35.3360   59.0260 C   0  0  0  0  0  0  0  0  0  0  0  0
   20.2650   35.3900   56.6660 C   0  0  0  0  0  0  0  0  0  0  0  0
   19.6590   34.5990   55.5180 C   0  0  0  0  0  0  0  0  0  0  0  0
   18.3170   34.8570   55.1080 C   0  0  0  0  0  0  0  0  0  0  0  0
   17.7440   34.1170   54.0310 C   0  0  0  0  0  0  0  0  0  0  0  0
   18.5090   33.1210   53.3630 C   0  0  0  0  0  0  0  0  0  0  0  0
   19.8480   32.8630   53.7710 C   0  0  0  0  0  0  0  0  0  0  0  0
   20.4240   33.6000   54.8470 C   0  0  0  0  0  0  0  0  0  0  0  0
   23.1830   33.9510   59.6860 C   0  0  0  0  0  0  0  0  0  0  0  0
   24.0260   34.1710   61.9380 C   0  0  0  0  0  0  0  0  0  0  0  0
   22.6490   34.6380   62.3860 C   0  0  0  0  0  0  0  0  0  0  0  0
   21.8210   34.4950   60.1470 C   0  0  0  0  0  0  0  0  0  0  0  0
   27.5070   35.6000   56.6070 C   0  0  0  0  0  0  0  0  0  0  0  0
   13.4930   35.5600   57.6150 C   0  0  0  0  0  0  0  0  0  0  0  0
   27.3570   34.3420   60.7360 C   0  0  0  0  0  0  0  0  0  0  0  0
   28.2480   35.3750   60.3390 C   0  0  0  0  0  0  0  0  0  0  0  0
   28.2960   35.7890   58.9780 C   0  0  0  0  0  0  0  0  0  0  0  0
   27.4530   35.1700   58.0120 C   0  0  0  0  0  0  0  0  0  0  0  0
   26.5600   34.1330   58.4100 C   0  0  0  0  0  0  0  0  0  0  0  0
   26.5140   33.7200   59.7720 C   0  0  0  0  0  0  0  0  0  0  0  0
  6  1  2  0
 17  1  1  0
 33  2  1  0
 19  3  1  0
 21  3  1  0
 22  3  1  0
 19  4  2  0
 14  5  1  0
 18  5  2  0
 20  5  2  0
 48  5  1  0
 10  6  1  0
 19  6  1  0
 35  7  1  0
 27  8  1  0
 28  8  1  0
 27  9  2  0
 13 10  2  0
 39 11  1  0
 40 11  1  0
 29 12  1  0
 15 13  1  0
 27 13  1  0
 37 14  1  0
 38 14  1  0
 17 15  2  0
 25 16  1  0
 42 16  1  0
 26 17  1  0
 24 21  1  0
 25 21  1  0
 23 22  1  0
 24 23  1  0
 29 28  1  0
 30 28  1  0
 40 29  1  0
 31 30  1  0
 32 31  2  0
 36 31  1  0
 33 32  1  0
 34 33  2  0
 35 34  1  0
 36 35  2  0
 40 37  1  0
 39 38  1  0
 46 41  1  0
 44 43  2  0
 48 43  1  0
 45 44  1  0
 46 45  2  0
 47 46  1  0
 48 47  2  0
A    1
C1
A    2
F1
A    3
N1
A    4
O1
A    5
S1
A    6
C2
A    7
F2
A    8
N2
A    9
O2
A   10
C3
A   11
N3
A   12
O3
A   13
C4
A   14
N4
A   15
C5
A   16
O5
A   17
C6
A   18
O6
A   19
C7
A   20
O7
A   21
C8
A   22
C9
A   23
C10
A   24
C11
A   25
C12
A   26
C14
A   27
C15
A   28
C16
A   29
C17
A   30
C18
A   31
C19
A   32
C20
A   33
C21
A   34
C22
A   35
C23
A   36
C24
A   37
C25
A   38
C27
A   39
C28
A   40
C29
A   41
C32
A   42
C34
A   43
C35
A   44
C36
A   45
C37
A   46
C38
A   47
C39
A   48
C40
M  END
>  <Id>  (19) 
3LPK_Z76_B_456

>  <ChainId>  (19) 
B

>  <AsymId>  (19) 
F

>  <SeqNum>  (19) 
456

>  <Name>  (19) 
N-[(1S,2S)-1-(3,5-difluorobenzyl)-2-hydroxy-2-{(2R)-4-[(3-methylphenyl)sulfonyl]piperazin-2-yl}ethyl]-3-{[(2R)-2-(methoxymethyl)pyrrolidin-1-yl]carbonyl}-5-methylbenzamide

>  <SystematicName>  (19) 
N-[(1S,2S)-3-(3,5-difluorophenyl)-1-hydroxy-1-[(2R,4S)-4-(3-methylphenyl)sulfonylpiperazin-2-yl]propan-2-yl]-3-[(2R)-2-(methoxymethyl)pyrrolidin-1-yl]carbonyl-5-methyl-benzamide

>  <Synonyms>  (19) 


>  <Type>  (19) 
NON-POLYMER

>  <Formula>  (19) 
C35 H42 F2 N4 O6 S

>  <ObservedFormula>  (19) 
C35 S F2 N4 O6

>  <MolecularWeight>  (19) 
684.793

>  <ModifiedDate>  (19) 
2011-06-04

>  <Parent>  (19) 


>  <OneLetterCode>  (19) 


>  <SubcomponentList>  (19) 


>  <AmbiguousFlag>  (19) 
N

>  <InsertionCode>  (19) 


>  <InstanceId>  (19) 
3LPK_Z76_B_456

>  <ChemCompId>  (19) 
Z76

>  <PdbId>  (19) 
3LPK

>  <ResidueNumber>  (19) 
456

>  <InChI>  (19) 
InChI=1S/C35H42F2N4O6S/c1-22-6-4-8-30(14-22)48(45,46)40-11-9-38-32(20-40)33(42)31(17-24-15-27(36)19-28(37)16-24)39-34(43)25-12-23(2)13-26(18-25)35(44)41-10-5-7-29(41)21-47-3/h4,6,8,12-16,18-19,29,31-33,38,42H,5,7,9-11,17,20-21H2,1-3H3,(H,39,43)/t29-,31+,32-,33+/m1/s1

>  <InChIKey>  (19) 
CQQMWBPWYUPVOC-PPESYSCFSA-N

>  <SMILES>  (19) 
Cc1cccc(c1)S(=O)(=O)[N@]2CCN[C@H](C2)[C@H]([C@H](Cc3cc(cc(c3)F)F)NC(=O)c4cc(cc(c4)C(=O)N5CCC[C@@H]5COC)C)O

>  <MissingHeavyAtoms>  (19) 
0

>  <Model>  (19) 
1

>  <AltIds>  (19) 


>  <pKI>  (19) 
9.1

>  <ChemblID>  (19) 
CHEMBL1097342

>  <standardized_canonical_smiles>  (19) 
COC[C@H]1CCCN1C(=O)c1cc(C)cc(C(=O)N[C@@H](Cc2cc(F)cc(F)c2)[C@H](O)[C@H]2CN(S(=O)(=O)c3cccc(C)c3)CCN2)c1

$$$$
4DJV_0KM_B_501
     RDKit          3D

 28 31  0  0  0  0  0  0  0  0999 V2000
   20.3900   32.3870   56.6450 O   0  0  0  0  0  0  0  0  0  0  0  0
   20.4540   33.5720   56.9050 C   0  0  0  0  0  0  0  0  0  0  0  0
   20.6930   34.7260   55.8920 C   0  0  0  0  0  0  0  0  0  0  0  0
   20.4790   35.9470   56.7600 N   0  0  0  0  0  0  0  0  0  0  0  0
   20.3750   35.5500   58.0430 C   0  0  0  0  0  0  0  0  0  0  0  0
   20.3240   34.1270   58.1600 N   0  0  0  0  0  0  0  0  0  0  0  0
   20.2300   36.3820   59.0930 N   0  0  0  0  0  0  0  0  0  0  0  0
   20.1150   33.3280   59.3690 C   0  0  0  0  0  0  0  0  0  0  0  0
   22.1390   34.6270   55.3740 C   0  0  0  0  0  0  0  0  0  0  0  0
   22.9570   35.7530   55.3440 C   0  0  0  0  0  0  0  0  0  0  0  0
   24.2690   35.6700   54.8870 C   0  0  0  0  0  0  0  0  0  0  0  0
   24.7770   34.4690   54.4480 C   0  0  0  0  0  0  0  0  0  0  0  0
   23.9750   33.3350   54.4700 C   0  0  0  0  0  0  0  0  0  0  0  0
   22.6650   33.4150   54.9270 C   0  0  0  0  0  0  0  0  0  0  0  0
   19.6160   34.6850   54.7950 C   0  0  0  0  0  0  0  0  0  0  0  0
   19.9280   34.4840   53.4520 C   0  0  0  0  0  0  0  0  0  0  0  0
   18.9180   34.3600   52.5050 C   0  0  0  0  0  0  0  0  0  0  0  0
   17.5890   34.4630   52.8960 C   0  0  0  0  0  0  0  0  0  0  0  0
   17.2520   34.6830   54.2380 C   0  0  0  0  0  0  0  0  0  0  0  0
   18.2780   34.7990   55.1790 C   0  0  0  0  0  0  0  0  0  0  0  0
   13.2590   34.7200   55.8040 C   0  0  0  0  0  0  0  0  0  0  0  0
   15.4720   35.6700   55.6840 C   0  0  0  0  0  0  0  0  0  0  0  0
   15.8390   34.7640   54.6830 C   0  0  0  0  0  0  0  0  0  0  0  0
   14.8740   33.8670   54.2190 C   0  0  0  0  0  0  0  0  0  0  0  0
   13.6000   33.8390   54.7860 C   0  0  0  0  0  0  0  0  0  0  0  0
   14.1980   35.6490   56.2390 C   0  0  0  0  0  0  0  0  0  0  0  0
   14.0590   36.6000   57.2150 O   0  0  0  0  0  0  0  0  0  0  0  0
   12.8200   36.6580   57.9450 C   0  0  0  0  0  0  0  0  0  0  0  0
  2  1  2  0
  3  2  1  0
  6  2  1  0
  4  3  1  0
  9  3  1  0
 15  3  1  0
  5  4  1  0
  6  5  1  0
  7  5  2  0
  8  6  1  0
 10  9  2  0
 14  9  1  0
 11 10  1  0
 12 11  2  0
 13 12  1  0
 14 13  2  0
 16 15  2  0
 20 15  1  0
 17 16  1  0
 18 17  2  0
 19 18  1  0
 20 19  2  0
 23 19  1  0
 25 21  2  0
 26 21  1  0
 23 22  1  0
 26 22  2  0
 24 23  2  0
 25 24  1  0
 27 26  1  0
 28 27  1  0
A    1
O1
A    2
C1
A    3
C2
A    4
N1
A    5
C3
A    6
N2
A    7
N3
A    8
C4
A    9
C5
A   10
C6
A   11
C7
A   12
C8
A   13
C9
A   14
C10
A   15
C11
A   16
C12
A   17
C13
A   18
C14
A   19
C15
A   20
C16
A   21
C17
A   22
C18
A   23
C19
A   24
C20
A   25
C21
A   26
C22
A   27
O2
A   28
C23
M  END
>  <Id>  (20) 
4DJV_0KM_B_501

>  <ChainId>  (20) 
B

>  <AsymId>  (20) 
E

>  <SeqNum>  (20) 
501

>  <Name>  (20) 
(2E,5R)-2-imino-5-(3'-methoxybiphenyl-3-yl)-3-methyl-5-phenylimidazolidin-4-one

>  <SystematicName>  (20) 
(5R)-2-azanylidene-5-[3-(3-methoxyphenyl)phenyl]-3-methyl-5-phenyl-imidazolidin-4-one

>  <Synonyms>  (20) 


>  <Type>  (20) 
NON-POLYMER

>  <Formula>  (20) 
C23 H21 N3 O2

>  <ObservedFormula>  (20) 
C23 N3 O2

>  <MolecularWeight>  (20) 
371.432

>  <ModifiedDate>  (20) 
2012-03-16

>  <Parent>  (20) 


>  <OneLetterCode>  (20) 


>  <SubcomponentList>  (20) 


>  <AmbiguousFlag>  (20) 
N

>  <InsertionCode>  (20) 


>  <InstanceId>  (20) 
4DJV_0KM_B_501

>  <ChemCompId>  (20) 
0KM

>  <PdbId>  (20) 
4DJV

>  <ResidueNumber>  (20) 
501

>  <InChI>  (20) 
InChI=1S/C23H21N3O2/c1-26-21(27)23(25-22(26)24,18-10-4-3-5-11-18)19-12-6-8-16(14-19)17-9-7-13-20(15-17)28-2/h3-15H,1-2H3,(H2,24,25)/t23-/m1/s1

>  <InChIKey>  (20) 
LRYKHTDVFXMHEH-HSZRJFAPSA-N

>  <SMILES>  (20) 
[H]/N=C/1\N[C@](C(=O)N1C)(c2ccccc2)c3cccc(c3)c4cccc(c4)OC

>  <MissingHeavyAtoms>  (20) 
0

>  <Model>  (20) 
1

>  <AltIds>  (20) 


>  <pKI>  (20) 
7.1

>  <ChemblID>  (20) 
CHEMBL2011981

>  <standardized_canonical_smiles>  (20) 
COc1cccc(-c2cccc([C@@]3(c4ccccc4)N=C(N)N(C)C3=O)c2)c1

$$$$
4DJW_0KP_B_501
     RDKit          3D

 26 29  0  0  0  0  0  0  0  0999 V2000
   20.3390   32.3540   56.6980 O   0  0  0  0  0  0  0  0  0  0  0  0
   20.4680   33.5260   56.9840 C   0  0  0  0  0  0  0  0  0  0  0  0
   20.6980   34.7180   55.9980 C   0  0  0  0  0  0  0  0  0  0  0  0
   20.5160   35.9250   56.9050 N   0  0  0  0  0  0  0  0  0  0  0  0
   20.4250   35.4880   58.1590 C   0  0  0  0  0  0  0  0  0  0  0  0
   20.3920   34.0490   58.2520 N   0  0  0  0  0  0  0  0  0  0  0  0
   20.2770   36.2890   59.2230 N   0  0  0  0  0  0  0  0  0  0  0  0
   20.1970   33.2250   59.4520 C   0  0  0  0  0  0  0  0  0  0  0  0
   22.1350   34.6360   55.4580 C   0  0  0  0  0  0  0  0  0  0  0  0
   22.9620   35.7500   55.4670 C   0  0  0  0  0  0  0  0  0  0  0  0
   24.2770   35.6650   55.0230 C   0  0  0  0  0  0  0  0  0  0  0  0
   24.7760   34.4720   54.5540 C   0  0  0  0  0  0  0  0  0  0  0  0
   23.9600   33.3600   54.5120 C   0  0  0  0  0  0  0  0  0  0  0  0
   22.6470   33.4380   54.9540 C   0  0  0  0  0  0  0  0  0  0  0  0
   19.6000   34.7560   54.9200 C   0  0  0  0  0  0  0  0  0  0  0  0
   19.9220   34.7920   53.5690 C   0  0  0  0  0  0  0  0  0  0  0  0
   18.9270   34.7600   52.6090 C   0  0  0  0  0  0  0  0  0  0  0  0
   17.5950   34.7250   52.9900 C   0  0  0  0  0  0  0  0  0  0  0  0
   17.2390   34.7270   54.3390 C   0  0  0  0  0  0  0  0  0  0  0  0
   18.2560   34.7290   55.3020 C   0  0  0  0  0  0  0  0  0  0  0  0
   13.2410   34.6290   55.7170 C   0  0  0  0  0  0  0  0  0  0  0  0
   14.0770   35.5260   56.2490 N   0  0  0  0  0  0  0  0  0  0  0  0
   15.3300   35.5650   55.7660 C   0  0  0  0  0  0  0  0  0  0  0  0
   15.8050   34.7300   54.7600 C   0  0  0  0  0  0  0  0  0  0  0  0
   14.8920   33.8330   54.2120 C   0  0  0  0  0  0  0  0  0  0  0  0
   13.5960   33.7790   54.6960 C   0  0  0  0  0  0  0  0  0  0  0  0
  2  1  2  0
  3  2  1  0
  6  2  1  0
  4  3  1  0
  9  3  1  0
 15  3  1  0
  5  4  1  0
  6  5  1  0
  7  5  2  0
  8  6  1  0
 10  9  2  0
 14  9  1  0
 11 10  1  0
 12 11  2  0
 13 12  1  0
 14 13  2  0
 16 15  2  0
 20 15  1  0
 17 16  1  0
 18 17  2  0
 19 18  1  0
 20 19  2  0
 24 19  1  0
 22 21  2  0
 26 21  1  0
 23 22  1  0
 24 23  2  0
 25 24  1  0
 26 25  2  0
A    1
O1
A    2
C1
A    3
C2
A    4
N1
A    5
C3
A    6
N2
A    7
N3
A    8
C4
A    9
C5
A   10
C6
A   11
C7
A   12
C8
A   13
C9
A   14
C10
A   15
C11
A   16
C12
A   17
C13
A   18
C14
A   19
C15
A   20
C16
A   21
C17
A   22
N4
A   23
C18
A   24
C19
A   25
C20
A   26
C21
M  END
>  <Id>  (21) 
4DJW_0KP_B_501

>  <ChainId>  (21) 
B

>  <AsymId>  (21) 
E

>  <SeqNum>  (21) 
501

>  <Name>  (21) 
(2E,5R)-2-imino-3-methyl-5-phenyl-5-[3-(pyridin-3-yl)phenyl]imidazolidin-4-one

>  <SystematicName>  (21) 
(5R)-2-azanylidene-3-methyl-5-phenyl-5-(3-pyridin-3-ylphenyl)imidazolidin-4-one

>  <Synonyms>  (21) 


>  <Type>  (21) 
NON-POLYMER

>  <Formula>  (21) 
C21 H18 N4 O

>  <ObservedFormula>  (21) 
C21 N4 O

>  <MolecularWeight>  (21) 
342.394

>  <ModifiedDate>  (21) 
2012-03-16

>  <Parent>  (21) 


>  <OneLetterCode>  (21) 


>  <SubcomponentList>  (21) 


>  <AmbiguousFlag>  (21) 
N

>  <InsertionCode>  (21) 


>  <InstanceId>  (21) 
4DJW_0KP_B_501

>  <ChemCompId>  (21) 
0KP

>  <PdbId>  (21) 
4DJW

>  <ResidueNumber>  (21) 
501

>  <InChI>  (21) 
InChI=1S/C21H18N4O/c1-25-19(26)21(24-20(25)22,17-9-3-2-4-10-17)18-11-5-7-15(13-18)16-8-6-12-23-14-16/h2-14H,1H3,(H2,22,24)/t21-/m1/s1

>  <InChIKey>  (21) 
PNSQCPQDRVOKMA-OAQYLSRUSA-N

>  <SMILES>  (21) 
[H]/N=C/1\N[C@](C(=O)N1C)(c2ccccc2)c3cccc(c3)c4cccnc4

>  <MissingHeavyAtoms>  (21) 
0

>  <Model>  (21) 
1

>  <AltIds>  (21) 


>  <pKI>  (21) 
6.96

>  <ChemblID>  (21) 
CHEMBL2011983

>  <standardized_canonical_smiles>  (21) 
CN1C(=O)[C@@](c2ccccc2)(c2cccc(-c3cccnc3)c2)N=C1N

$$$$
4DJX_0KQ_B_501
     RDKit          3D

 24 27  0  0  0  0  0  0  0  0999 V2000
   20.8370   33.4920   57.0210 C   0  0  0  0  0  0  0  0  0  0  0  0
   21.0240   34.6580   56.0130 C   0  0  0  0  0  0  0  0  0  0  0  0
   20.7800   35.8840   56.8720 N   0  0  0  0  0  0  0  0  0  0  0  0
   20.6350   35.4790   58.1500 C   0  0  0  0  0  0  0  0  0  0  0  0
   20.6140   34.0650   58.2590 N   0  0  0  0  0  0  0  0  0  0  0  0
   20.4580   36.2670   59.1980 N   0  0  0  0  0  0  0  0  0  0  0  0
   20.3880   33.2880   59.4770 C   0  0  0  0  0  0  0  0  0  0  0  0
   20.8230   32.2990   56.7870 O   0  0  0  0  0  0  0  0  0  0  0  0
   19.9210   34.6070   54.9340 C   0  0  0  0  0  0  0  0  0  0  0  0
   22.4910   34.4900   55.5030 C   0  0  0  0  0  0  0  0  0  0  0  0
   20.2460   34.4600   53.5870 C   0  0  0  0  0  0  0  0  0  0  0  0
   19.2500   34.3100   52.6330 C   0  0  0  0  0  0  0  0  0  0  0  0
   17.9190   34.3120   53.0170 C   0  0  0  0  0  0  0  0  0  0  0  0
   17.5620   34.4760   54.3640 C   0  0  0  0  0  0  0  0  0  0  0  0
   18.5750   34.6400   55.3120 C   0  0  0  0  0  0  0  0  0  0  0  0
   16.1270   34.4420   54.7870 C   0  0  0  0  0  0  0  0  0  0  0  0
   15.2180   33.5320   54.2550 C   0  0  0  0  0  0  0  0  0  0  0  0
   13.5420   34.1610   55.6890 C   0  0  0  0  0  0  0  0  0  0  0  0
   15.6670   35.2720   55.8120 C   0  0  0  0  0  0  0  0  0  0  0  0
   13.9570   33.3830   54.6840 N   0  0  0  0  0  0  0  0  0  0  0  0
   23.3050   35.7210   55.2300 C   0  0  0  0  0  0  0  0  0  0  0  0
   23.6810   34.8140   56.3580 C   0  0  0  0  0  0  0  0  0  0  0  0
   14.3750   35.1090   56.2570 C   0  0  0  0  0  0  0  0  0  0  0  0
   13.8100   36.0690   57.5950 Cl  0  0  0  0  0  0  0  0  0  0  0  0
  2  1  1  0
  5  1  1  0
  8  1  2  0
  3  2  1  0
  9  2  1  0
 10  2  1  0
  4  3  1  0
  5  4  1  0
  6  4  2  0
  7  5  1  0
 11  9  2  0
 15  9  1  0
 21 10  1  0
 22 10  1  0
 12 11  1  0
 13 12  2  0
 14 13  1  0
 15 14  2  0
 16 14  1  0
 17 16  2  0
 19 16  1  0
 20 17  1  0
 20 18  2  0
 23 18  1  0
 23 19  2  0
 22 21  1  0
 24 23  1  0
A    1
C1
A    2
C2
A    3
N1
A    4
C3
A    5
N2
A    6
N3
A    7
C4
A    8
O1
A    9
C5
A   10
C6
A   11
C7
A   12
C8
A   13
C9
A   14
C10
A   15
C11
A   16
C12
A   17
C13
A   18
C15
A   19
C16
A   20
N5
A   21
C17
A   22
C18
A   23
C19
A   24
CL1
M  END
>  <Id>  (22) 
4DJX_0KQ_B_501

>  <ChainId>  (22) 
B

>  <AsymId>  (22) 
E

>  <SeqNum>  (22) 
501

>  <Name>  (22) 
(2E,5R)-5-[3-(5-chloropyridin-3-yl)phenyl]-5-cyclopropyl-2-imino-3-methylimidazolidin-4-one

>  <SystematicName>  (22) 
(5R)-2-azanylidene-5-[3-(5-chloranylpyridin-3-yl)phenyl]-5-cyclopropyl-3-methyl-imidazolidin-4-one

>  <Synonyms>  (22) 


>  <Type>  (22) 
NON-POLYMER

>  <Formula>  (22) 
C18 H17 Cl N4 O

>  <ObservedFormula>  (22) 
C18 Cl N4 O

>  <MolecularWeight>  (22) 
340.807

>  <ModifiedDate>  (22) 
2012-03-16

>  <Parent>  (22) 


>  <OneLetterCode>  (22) 


>  <SubcomponentList>  (22) 


>  <AmbiguousFlag>  (22) 
N

>  <InsertionCode>  (22) 


>  <InstanceId>  (22) 
4DJX_0KQ_B_501

>  <ChemCompId>  (22) 
0KQ

>  <PdbId>  (22) 
4DJX

>  <ResidueNumber>  (22) 
501

>  <InChI>  (22) 
InChI=1S/C18H17ClN4O/c1-23-16(24)18(13-5-6-13,22-17(23)20)14-4-2-3-11(7-14)12-8-15(19)10-21-9-12/h2-4,7-10,13H,5-6H2,1H3,(H2,20,22)/t18-/m1/s1

>  <InChIKey>  (22) 
SZDQNTKTWBPIBH-GOSISDBHSA-N

>  <SMILES>  (22) 
[H]/N=C/1\N[C@@](C(=O)N1C)(c2cccc(c2)c3cc(cnc3)Cl)C4CC4

>  <MissingHeavyAtoms>  (22) 
0

>  <Model>  (22) 
1

>  <AltIds>  (22) 


>  <pKI>  (22) 
7.68

>  <ChemblID>  (22) 
CHEMBL2011965

>  <standardized_canonical_smiles>  (22) 
CN1C(=O)[C@](c2cccc(-c3cncc(Cl)c3)c2)(C2CC2)N=C1N

$$$$
4DJY_0KR_B_501
     RDKit          3D

 26 29  0  0  0  0  0  0  0  0999 V2000
   21.1090   34.6360   56.0430 C   0  0  0  0  0  0  0  0  0  0  0  0
   20.7900   35.8460   56.9090 N   0  0  0  0  0  0  0  0  0  0  0  0
   20.6180   35.4120   58.1580 C   0  0  0  0  0  0  0  0  0  0  0  0
   20.6360   33.9860   58.2620 N   0  0  0  0  0  0  0  0  0  0  0  0
   20.9410   33.4560   57.0220 C   0  0  0  0  0  0  0  0  0  0  0  0
   22.5880   34.5140   55.5700 C   0  0  0  0  0  0  0  0  0  0  0  0
   21.0420   32.2750   56.7450 O   0  0  0  0  0  0  0  0  0  0  0  0
   20.0700   34.5420   54.9180 C   0  0  0  0  0  0  0  0  0  0  0  0
   18.7070   34.5130   55.2320 C   0  0  0  0  0  0  0  0  0  0  0  0
   17.7490   34.3330   54.2250 C   0  0  0  0  0  0  0  0  0  0  0  0
   18.1850   34.1970   52.8990 C   0  0  0  0  0  0  0  0  0  0  0  0
   19.5330   34.2490   52.5870 C   0  0  0  0  0  0  0  0  0  0  0  0
   20.4720   34.4270   53.5900 C   0  0  0  0  0  0  0  0  0  0  0  0
   20.3690   36.2040   59.2050 N   0  0  0  0  0  0  0  0  0  0  0  0
   20.3870   33.1730   59.4580 C   0  0  0  0  0  0  0  0  0  0  0  0
   23.7820   34.7900   56.4540 C   0  0  0  0  0  0  0  0  0  0  0  0
   23.4170   35.7490   55.3710 C   0  0  0  0  0  0  0  0  0  0  0  0
   16.3040   34.2240   54.5760 C   0  0  0  0  0  0  0  0  0  0  0  0
   15.7410   35.0500   55.5580 C   0  0  0  0  0  0  0  0  0  0  0  0
   14.3980   34.8950   55.9020 C   0  0  0  0  0  0  0  0  0  0  0  0
   13.6640   33.9080   55.2350 C   0  0  0  0  0  0  0  0  0  0  0  0
   15.4740   33.2790   53.9820 C   0  0  0  0  0  0  0  0  0  0  0  0
   13.7950   35.7060   56.9280 C   0  0  0  0  0  0  0  0  0  0  0  0
   14.1870   33.1070   54.3010 N   0  0  0  0  0  0  0  0  0  0  0  0
   13.2150   36.3400   57.7530 C   0  0  0  0  0  0  0  0  0  0  0  0
   12.4680   37.1220   58.7510 C   0  0  0  0  0  0  0  0  0  0  0  0
  2  1  1  0
  5  1  1  0
  6  1  1  0
  8  1  1  0
  3  2  1  0
  4  3  1  0
 14  3  2  0
  5  4  1  0
 15  4  1  0
  7  5  2  0
 16  6  1  0
 17  6  1  0
  9  8  2  0
 13  8  1  0
 10  9  1  0
 11 10  2  0
 18 10  1  0
 12 11  1  0
 13 12  2  0
 17 16  1  0
 19 18  2  0
 22 18  1  0
 20 19  1  0
 21 20  2  0
 23 20  1  0
 24 21  1  0
 24 22  2  0
 25 23  3  0
 26 25  1  0
A    1
C1
A    2
N1
A    3
C2
A    4
N2
A    5
C3
A    6
C4
A    7
O1
A    8
C5
A    9
C6
A   10
C7
A   11
C8
A   12
C9
A   13
C10
A   14
N3
A   15
C11
A   16
C12
A   17
C13
A   18
C14
A   19
C15
A   20
C16
A   21
C17
A   22
C19
A   23
C21
A   24
N5
A   25
C22
A   26
C23
M  END
>  <Id>  (23) 
4DJY_0KR_B_501

>  <ChainId>  (23) 
B

>  <AsymId>  (23) 
E

>  <SeqNum>  (23) 
501

>  <Name>  (23) 
(2E,5R)-5-cyclopropyl-2-imino-3-methyl-5-{3-[5-(prop-1-yn-1-yl)pyridin-3-yl]phenyl}imidazolidin-4-one

>  <SystematicName>  (23) 
(5R)-2-azanylidene-5-cyclopropyl-3-methyl-5-[3-(5-prop-1-ynylpyridin-3-yl)phenyl]imidazolidin-4-one

>  <Synonyms>  (23) 


>  <Type>  (23) 
NON-POLYMER

>  <Formula>  (23) 
C21 H20 N4 O

>  <ObservedFormula>  (23) 
C21 N4 O

>  <MolecularWeight>  (23) 
344.41

>  <ModifiedDate>  (23) 
2012-03-16

>  <Parent>  (23) 


>  <OneLetterCode>  (23) 


>  <SubcomponentList>  (23) 


>  <AmbiguousFlag>  (23) 
N

>  <InsertionCode>  (23) 


>  <InstanceId>  (23) 
4DJY_0KR_B_501

>  <ChemCompId>  (23) 
0KR

>  <PdbId>  (23) 
4DJY

>  <ResidueNumber>  (23) 
501

>  <InChI>  (23) 
InChI=1S/C21H20N4O/c1-3-5-14-10-16(13-23-12-14)15-6-4-7-18(11-15)21(17-8-9-17)19(26)25(2)20(22)24-21/h4,6-7,10-13,17H,8-9H2,1-2H3,(H2,22,24)/t21-/m1/s1

>  <InChIKey>  (23) 
HORHMTMHXZJNQJ-OAQYLSRUSA-N

>  <SMILES>  (23) 
[H]/N=C/1\N[C@@](C(=O)N1C)(c2cccc(c2)c3cc(cnc3)C#CC)C4CC4

>  <MissingHeavyAtoms>  (23) 
0

>  <Model>  (23) 
1

>  <AltIds>  (23) 


>  <pKI>  (23) 
8.27

>  <ChemblID>  (23) 
CHEMBL2012070

>  <standardized_canonical_smiles>  (23) 
CC#Cc1cncc(-c2cccc([C@@]3(C4CC4)N=C(N)N(C)C3=O)c2)c1

$$$$
4FRS_0V6_B_501
     RDKit          3D

 25 27  0  0  0  0  0  0  0  0999 V2000
   20.7440   34.2600   55.8250 C   0  0  0  0  0  0  0  0  0  0  0  0
   19.2290   34.9720   56.2240 S   0  0  0  0  0  0  0  0  0  0  0  0
   20.5570   33.3260   54.8440 C   0  0  0  0  0  0  0  0  0  0  0  0
   19.1890   33.1760   54.4070 C   0  0  0  0  0  0  0  0  0  0  0  0
   18.3400   34.0620   55.1040 C   0  0  0  0  0  0  0  0  0  0  0  0
   22.6850   33.4740   57.1920 C   0  0  0  0  0  0  0  0  0  0  0  0
   21.8120   32.8850   58.3250 C   0  0  0  0  0  0  0  0  0  0  0  0
   21.0130   33.8090   59.0990 N   0  0  0  0  0  0  0  0  0  0  0  0
   21.0230   35.1780   58.8690 C   0  0  0  0  0  0  0  0  0  0  0  0
   21.6940   35.6140   57.7190 N   0  0  0  0  0  0  0  0  0  0  0  0
   22.0010   34.7040   56.5570 C   0  0  0  0  0  0  0  0  0  0  0  0
   22.9820   35.5130   55.6440 C   0  0  0  0  0  0  0  0  0  0  0  0
   21.8800   32.4360   54.1950 Cl  0  0  0  0  0  0  0  0  0  0  0  0
   16.8850   34.1610   55.0190 C   0  0  0  0  0  0  0  0  0  0  0  0
   16.1460   34.8430   56.0250 C   0  0  0  0  0  0  0  0  0  0  0  0
   14.7310   34.8620   56.0320 C   0  0  0  0  0  0  0  0  0  0  0  0
   14.0720   34.1940   54.9940 C   0  0  0  0  0  0  0  0  0  0  0  0
   14.7570   33.5370   53.9810 N   0  0  0  0  0  0  0  0  0  0  0  0
   16.1310   33.5230   54.0000 C   0  0  0  0  0  0  0  0  0  0  0  0
   20.5230   36.0370   59.7380 N   0  0  0  0  0  0  0  0  0  0  0  0
   21.8330   31.6690   58.5350 O   0  0  0  0  0  0  0  0  0  0  0  0
   20.1610   33.2410   60.2020 C   0  0  0  0  0  0  0  0  0  0  0  0
   13.9950   35.5130   57.0660 C   0  0  0  0  0  0  0  0  0  0  0  0
   13.3880   36.0480   57.9180 C   0  0  0  0  0  0  0  0  0  0  0  0
   12.6110   36.6620   59.0100 C   0  0  0  0  0  0  0  0  0  0  0  0
  2  1  1  0
  3  1  2  0
 11  1  1  0
  5  2  1  0
  4  3  1  0
 13  3  1  0
  5  4  2  0
 14  5  1  0
  7  6  1  0
 11  6  1  0
  8  7  1  0
 21  7  2  0
  9  8  1  0
 22  8  1  0
 10  9  1  0
 20  9  2  0
 11 10  1  0
 12 11  1  0
 15 14  2  0
 19 14  1  0
 16 15  1  0
 17 16  2  0
 23 16  1  0
 18 17  1  0
 19 18  2  0
 24 23  3  0
 25 24  1  0
A    1
C2
A    2
S1
A    3
C3
A    4
C4
A    5
C5
A    6
C6
A    7
C7
A    8
N8
A    9
C9
A   10
N10
A   11
C11
A   12
C12
A   13
CL
A   14
C14
A   15
C15
A   16
C16
A   17
C17
A   18
N18
A   19
C19
A   20
N20
A   21
O21
A   22
C22
A   23
C23
A   24
C24
A   25
C25
M  END
>  <Id>  (24) 
4FRS_0V6_B_501

>  <ChainId>  (24) 
B

>  <AsymId>  (24) 
D

>  <SeqNum>  (24) 
501

>  <Name>  (24) 
(2Z,6S)-6-{3-chloro-5-[5-(prop-1-yn-1-yl)pyridin-3-yl]thiophen-2-yl}-2-imino-3,6-dimethyltetrahydropyrimidin-4(1H)-one

>  <SystematicName>  (24) 
2-azanylidene-6-[3-chloranyl-5-(5-prop-1-ynylpyridin-3-yl)thiophen-2-yl]-3,6-dimethyl-1,3-diazinan-4-one

>  <Synonyms>  (24) 


>  <Type>  (24) 
NON-POLYMER

>  <Formula>  (24) 
C18 H17 Cl N4 O S

>  <ObservedFormula>  (24) 
C18 S Cl N4 O

>  <MolecularWeight>  (24) 
372.872

>  <ModifiedDate>  (24) 
2012-11-15

>  <Parent>  (24) 


>  <OneLetterCode>  (24) 


>  <SubcomponentList>  (24) 


>  <AmbiguousFlag>  (24) 
N

>  <InsertionCode>  (24) 


>  <InstanceId>  (24) 
4FRS_0V6_B_501

>  <ChemCompId>  (24) 
0V6

>  <PdbId>  (24) 
4FRS

>  <ResidueNumber>  (24) 
501

>  <InChI>  (24) 
InChI=1S/C18H17ClN4OS/c1-4-5-11-6-12(10-21-9-11)14-7-13(19)16(25-14)18(2)8-15(24)23(3)17(20)22-18/h6-7,9-10H,8H2,1-3H3,(H2,20,22)/t18-/m0/s1

>  <InChIKey>  (24) 
IJYPXSRDUPWKPB-SFHVURJKSA-N

>  <SMILES>  (24) 
[H]/N=C\1/NC(CC(=O)N1C)(C)c2c(cc(s2)c3cc(cnc3)C#CC)Cl

>  <MissingHeavyAtoms>  (24) 
0

>  <Model>  (24) 
1

>  <AltIds>  (24) 


>  <pKI>  (24) 
8.77

>  <ChemblID>  (24) 
CHEMBL2151181

>  <standardized_canonical_smiles>  (24) 
CC#Cc1cncc(-c2cc(Cl)c([C@]3(C)CC(=O)N(C)C(N)=N3)s2)c1

$$$$
4HA5_13W_B_503
     RDKit          3D

 23 25  0  0  0  0  0  0  0  0999 V2000
   15.0210   33.7920   53.0510 C   0  0  0  0  0  0  0  0  0  0  0  0
   14.3130   34.3110   54.1640 C   0  0  0  0  0  0  0  0  0  0  0  0
   15.0400   34.7760   55.2850 C   0  0  0  0  0  0  0  0  0  0  0  0
   16.4510   34.7260   55.2990 C   0  0  0  0  0  0  0  0  0  0  0  0
   17.1870   34.2090   54.1900 C   0  0  0  0  0  0  0  0  0  0  0  0
   16.4400   33.7400   53.0610 C   0  0  0  0  0  0  0  0  0  0  0  0
   18.6760   34.1580   54.2270 C   0  0  0  0  0  0  0  0  0  0  0  0
   19.4450   34.6880   55.2930 C   0  0  0  0  0  0  0  0  0  0  0  0
   20.8230   34.5090   55.0970 C   0  0  0  0  0  0  0  0  0  0  0  0
   21.1290   33.7060   53.6350 S   0  0  0  0  0  0  0  0  0  0  0  0
   19.4880   33.5810   53.2340 C   0  0  0  0  0  0  0  0  0  0  0  0
   21.9640   34.9460   56.0290 C   0  0  0  0  0  0  0  0  0  0  0  0
   22.6510   33.6890   56.6160 C   0  0  0  0  0  0  0  0  0  0  0  0
   21.8530   33.0460   57.7820 C   0  0  0  0  0  0  0  0  0  0  0  0
   21.0320   33.9000   58.5310 N   0  0  0  0  0  0  0  0  0  0  0  0
   20.9480   35.2720   58.3060 C   0  0  0  0  0  0  0  0  0  0  0  0
   21.4350   35.7900   57.1290 N   0  0  0  0  0  0  0  0  0  0  0  0
   20.4050   36.1020   59.2070 N   0  0  0  0  0  0  0  0  0  0  0  0
   22.9750   35.7920   55.2180 C   0  0  0  0  0  0  0  0  0  0  0  0
   20.2350   33.2390   59.6050 C   0  0  0  0  0  0  0  0  0  0  0  0
   21.9570   31.8420   58.0030 O   0  0  0  0  0  0  0  0  0  0  0  0
   14.3510   35.3080   56.4290 C   0  0  0  0  0  0  0  0  0  0  0  0
   13.8180   35.7430   57.3670 N   0  0  0  0  0  0  0  0  0  0  0  0
  2  1  2  0
  6  1  1  0
  3  2  1  0
  4  3  2  0
 22  3  1  0
  5  4  1  0
  6  5  2  0
  7  5  1  0
  8  7  1  0
 11  7  2  0
  9  8  2  0
 10  9  1  0
 12  9  1  0
 11 10  1  0
 13 12  1  0
 17 12  1  0
 19 12  1  0
 14 13  1  0
 15 14  1  0
 21 14  2  0
 16 15  1  0
 20 15  1  0
 17 16  1  0
 18 16  2  0
 23 22  3  0
A    1
C1
A    2
C2
A    3
C3
A    4
C4
A    5
C5
A    6
C6
A    7
C7
A    8
C8
A    9
C9
A   10
S1
A   11
C10
A   12
C11
A   13
C12
A   14
C13
A   15
N1
A   16
C14
A   17
N2
A   18
N3
A   19
C15
A   20
C16
A   21
O1
A   22
C17
A   23
N4
M  END
>  <Id>  (25) 
4HA5_13W_B_503

>  <ChainId>  (25) 
B

>  <AsymId>  (25) 
G

>  <SeqNum>  (25) 
503

>  <Name>  (25) 
3-{5-[(2E,4S)-2-imino-1,4-dimethyl-6-oxohexahydropyrimidin-4-yl]thiophen-3-yl}benzonitrile

>  <SystematicName>  (25) 
3-[5-[(4S)-2-azanylidene-1,4-dimethyl-6-oxidanylidene-1,3-diazinan-4-yl]thiophen-3-yl]benzenecarbonitrile

>  <Synonyms>  (25) 


>  <Type>  (25) 
NON-POLYMER

>  <Formula>  (25) 
C17 H16 N4 O S

>  <ObservedFormula>  (25) 
C17 S N4 O

>  <MolecularWeight>  (25) 
324.4

>  <ModifiedDate>  (25) 
2012-10-12

>  <Parent>  (25) 


>  <OneLetterCode>  (25) 


>  <SubcomponentList>  (25) 


>  <AmbiguousFlag>  (25) 
N

>  <InsertionCode>  (25) 


>  <InstanceId>  (25) 
4HA5_13W_B_503

>  <ChemCompId>  (25) 
13W

>  <PdbId>  (25) 
4HA5

>  <ResidueNumber>  (25) 
503

>  <InChI>  (25) 
InChI=1S/C17H16N4OS/c1-17(8-15(22)21(2)16(19)20-17)14-7-13(10-23-14)12-5-3-4-11(6-12)9-18/h3-7,10H,8H2,1-2H3,(H2,19,20)/t17-/m0/s1

>  <InChIKey>  (25) 
MLNWGLXMDFUREO-KRWDZBQOSA-N

>  <SMILES>  (25) 
[H]/N=C/1\N[C@](CC(=O)N1C)(C)c2cc(cs2)c3cccc(c3)C#N

>  <MissingHeavyAtoms>  (25) 
0

>  <Model>  (25) 
1

>  <AltIds>  (25) 


>  <pKI>  (25) 
7.24

>  <ChemblID>  (25) 
CHEMBL2151138

>  <standardized_canonical_smiles>  (25) 
CN1C(=O)C[C@@](C)(c2cc(-c3cccc(C#N)c3)cs2)N=C1N

$$$$
4FS4_H24_B_501
     RDKit          3D

 24 26  0  0  0  0  0  0  0  0999 V2000
   12.8210   36.7070   57.9830 C   0  0  0  0  0  0  0  0  0  0  0  0
   14.0090   36.7360   57.1660 O   0  0  0  0  0  0  0  0  0  0  0  0
   14.2070   35.7050   56.2870 C   0  0  0  0  0  0  0  0  0  0  0  0
   13.2890   34.6890   56.0280 C   0  0  0  0  0  0  0  0  0  0  0  0
   13.6620   33.6330   55.2120 C   0  0  0  0  0  0  0  0  0  0  0  0
   14.9390   33.5820   54.6690 C   0  0  0  0  0  0  0  0  0  0  0  0
   15.8720   34.5940   54.9220 C   0  0  0  0  0  0  0  0  0  0  0  0
   15.4810   35.6670   55.7320 C   0  0  0  0  0  0  0  0  0  0  0  0
   17.2610   34.5090   54.4040 C   0  0  0  0  0  0  0  0  0  0  0  0
   17.5360   33.8890   53.1820 C   0  0  0  0  0  0  0  0  0  0  0  0
   18.8370   33.7470   52.7340 C   0  0  0  0  0  0  0  0  0  0  0  0
   19.8880   34.2190   53.4990 C   0  0  0  0  0  0  0  0  0  0  0  0
   19.6530   34.8360   54.7250 C   0  0  0  0  0  0  0  0  0  0  0  0
   20.8730   35.2750   55.5550 C   0  0  0  0  0  0  0  0  0  0  0  0
   21.8710   36.1240   54.7110 C   0  0  0  0  0  0  0  0  0  0  0  0
   21.6480   34.0050   56.0080 C   0  0  0  0  0  0  0  0  0  0  0  0
   21.0010   33.3430   57.2130 C   0  0  0  0  0  0  0  0  0  0  0  0
   20.9680   32.1280   57.2960 O   0  0  0  0  0  0  0  0  0  0  0  0
   20.4150   34.1420   58.1690 N   0  0  0  0  0  0  0  0  0  0  0  0
   19.8520   33.5060   59.3650 C   0  0  0  0  0  0  0  0  0  0  0  0
   20.3570   35.5880   57.9450 C   0  0  0  0  0  0  0  0  0  0  0  0
   20.0910   36.4070   58.9710 N   0  0  0  0  0  0  0  0  0  0  0  0
   20.5610   36.1460   56.7330 N   0  0  0  0  0  0  0  0  0  0  0  0
   18.3350   34.9920   55.1710 C   0  0  0  0  0  0  0  0  0  0  0  0
  2  1  1  0
  3  2  1  0
  4  3  2  0
  8  3  1  0
  5  4  1  0
  6  5  2  0
  7  6  1  0
  8  7  2  0
  9  7  1  0
 10  9  2  0
 24  9  1  0
 11 10  1  0
 12 11  2  0
 13 12  1  0
 14 13  1  0
 24 13  2  0
 15 14  1  0
 16 14  1  0
 23 14  1  0
 17 16  1  0
 18 17  2  0
 19 17  1  0
 20 19  1  0
 21 19  1  0
 22 21  1  0
 23 21  2  0
A    1
C1
A    2
O2
A    3
C3
A    4
C4
A    5
C5
A    6
C6
A    7
C7
A    8
C8
A    9
C9
A   10
C10
A   11
C11
A   12
C12
A   13
C13
A   14
C14
A   15
C15
A   16
C18
A   17
C19
A   18
O20
A   19
N21
A   20
C22
A   21
C23
A   22
N24
A   23
N25
A   24
C26
M  END
>  <Id>  (26) 
4FS4_H24_B_501

>  <ChainId>  (26) 
B

>  <AsymId>  (26) 
E

>  <SeqNum>  (26) 
501

>  <Name>  (26) 
(6S)-2-amino-6-(3'-methoxybiphenyl-3-yl)-3,6-dimethyl-5,6-dihydropyrimidin-4(3H)-one

>  <SystematicName>  (26) 
(6S)-2-amino-6-[3-(3-methoxyphenyl)phenyl]-3,6-dimethyl-5H-pyrimidin-4-one

>  <Synonyms>  (26) 


>  <Type>  (26) 
non-polymer

>  <Formula>  (26) 
C19 H21 N3 O2

>  <ObservedFormula>  (26) 
C19 N3 O2

>  <MolecularWeight>  (26) 
323.389

>  <ModifiedDate>  (26) 
2011-06-04

>  <Parent>  (26) 


>  <OneLetterCode>  (26) 


>  <SubcomponentList>  (26) 


>  <AmbiguousFlag>  (26) 


>  <InsertionCode>  (26) 


>  <InstanceId>  (26) 
4FS4_H24_B_501

>  <ChemCompId>  (26) 
H24

>  <PdbId>  (26) 
4FS4

>  <ResidueNumber>  (26) 
501

>  <InChI>  (26) 
InChI=1S/C19H21N3O2/c1-19(12-17(23)22(2)18(20)21-19)15-8-4-6-13(10-15)14-7-5-9-16(11-14)24-3/h4-11H,12H2,1-3H3,(H2,20,21)/t19-/m0/s1

>  <InChIKey>  (26) 
LQOCXPOKEPYGTJ-IBGZPJMESA-N

>  <SMILES>  (26) 
C[C@]1(CC(=O)N(C(=N1)N)C)c2cccc(c2)c3cccc(c3)OC

>  <MissingHeavyAtoms>  (26) 
0

>  <Model>  (26) 
1

>  <AltIds>  (26) 


>  <pKI>  (26) 
6.57

>  <ChemblID>  (26) 
CHEMBL1233206

>  <standardized_canonical_smiles>  (26) 
COc1cccc(-c2cccc([C@]3(C)CC(=O)N(C)C(N)=N3)c2)c1

$$$$
2VA6_H24_A_1504
     RDKit          3D

 24 26  0  0  0  0  0  0  0  0999 V2000
   71.3950   46.1950    1.0770 C   0  0  0  0  0  0  0  0  0  0  0  0
   71.2020   47.1960    2.0940 O   0  0  0  0  0  0  0  0  0  0  0  0
   71.9160   47.0710    3.2590 C   0  0  0  0  0  0  0  0  0  0  0  0
   72.9540   46.1640    3.4370 C   0  0  0  0  0  0  0  0  0  0  0  0
   73.6110   46.0870    4.6440 C   0  0  0  0  0  0  0  0  0  0  0  0
   73.2240   46.8950    5.6950 C   0  0  0  0  0  0  0  0  0  0  0  0
   72.1820   47.8100    5.5450 C   0  0  0  0  0  0  0  0  0  0  0  0
   71.5200   47.8750    4.3220 C   0  0  0  0  0  0  0  0  0  0  0  0
   71.7470   48.6410    6.7040 C   0  0  0  0  0  0  0  0  0  0  0  0
   72.6880   49.1000    7.6140 C   0  0  0  0  0  0  0  0  0  0  0  0
   72.2980   49.8250    8.7160 C   0  0  0  0  0  0  0  0  0  0  0  0
   70.9650   50.0730    8.9460 C   0  0  0  0  0  0  0  0  0  0  0  0
   69.9970   49.6180    8.0630 C   0  0  0  0  0  0  0  0  0  0  0  0
   68.5260   49.9240    8.3880 C   0  0  0  0  0  0  0  0  0  0  0  0
   68.3640   51.4040    8.7510 C   0  0  0  0  0  0  0  0  0  0  0  0
   68.0830   49.0930    9.5980 C   0  0  0  0  0  0  0  0  0  0  0  0
   67.7070   47.6880    9.2360 C   0  0  0  0  0  0  0  0  0  0  0  0
   68.1030   46.7320    9.8790 O   0  0  0  0  0  0  0  0  0  0  0  0
   66.9550   47.5510    8.1180 N   0  0  0  0  0  0  0  0  0  0  0  0
   66.4060   46.2200    7.8170 C   0  0  0  0  0  0  0  0  0  0  0  0
   66.8320   48.6430    7.2040 C   0  0  0  0  0  0  0  0  0  0  0  0
   65.8730   48.6290    6.2740 N   0  0  0  0  0  0  0  0  0  0  0  0
   67.6470   49.6740    7.2170 N   0  0  0  0  0  0  0  0  0  0  0  0
   70.3970   48.8890    6.9490 C   0  0  0  0  0  0  0  0  0  0  0  0
  2  1  1  0
  3  2  1  0
  4  3  2  0
  8  3  1  0
  5  4  1  0
  6  5  2  0
  7  6  1  0
  8  7  2  0
  9  7  1  0
 10  9  2  0
 24  9  1  0
 11 10  1  0
 12 11  2  0
 13 12  1  0
 14 13  1  0
 24 13  2  0
 15 14  1  0
 16 14  1  0
 23 14  1  0
 17 16  1  0
 18 17  2  0
 19 17  1  0
 20 19  1  0
 21 19  1  0
 22 21  1  0
 23 21  2  0
A    1
C1
A    2
O2
A    3
C3
A    4
C4
A    5
C5
A    6
C6
A    7
C7
A    8
C8
A    9
C9
A   10
C10
A   11
C11
A   12
C12
A   13
C13
A   14
C14
A   15
C15
A   16
C18
A   17
C19
A   18
O20
A   19
N21
A   20
C22
A   21
C23
A   22
N24
A   23
N25
A   24
C26
M  END
>  <Id>  (27) 
2VA6_H24_A_1504

>  <ChainId>  (27) 
A

>  <AsymId>  (27) 
E

>  <SeqNum>  (27) 
1504

>  <Name>  (27) 
(6S)-2-amino-6-(3'-methoxybiphenyl-3-yl)-3,6-dimethyl-5,6-dihydropyrimidin-4(3H)-one

>  <SystematicName>  (27) 
(6S)-2-amino-6-[3-(3-methoxyphenyl)phenyl]-3,6-dimethyl-5H-pyrimidin-4-one

>  <Synonyms>  (27) 


>  <Type>  (27) 
non-polymer

>  <Formula>  (27) 
C19 H21 N3 O2

>  <ObservedFormula>  (27) 
C19 N3 O2

>  <MolecularWeight>  (27) 
323.389

>  <ModifiedDate>  (27) 
2011-06-04

>  <Parent>  (27) 


>  <OneLetterCode>  (27) 


>  <SubcomponentList>  (27) 


>  <AmbiguousFlag>  (27) 


>  <InsertionCode>  (27) 


>  <InstanceId>  (27) 
2VA6_H24_A_1504

>  <ChemCompId>  (27) 
H24

>  <PdbId>  (27) 
2VA6

>  <ResidueNumber>  (27) 
1504

>  <InChI>  (27) 
InChI=1S/C19H21N3O2/c1-19(12-17(23)22(2)18(20)21-19)15-8-4-6-13(10-15)14-7-5-9-16(11-14)24-3/h4-11H,12H2,1-3H3,(H2,20,21)/t19-/m0/s1

>  <InChIKey>  (27) 
LQOCXPOKEPYGTJ-IBGZPJMESA-N

>  <SMILES>  (27) 
C[C@]1(CC(=O)N(C(=N1)N)C)c2cccc(c2)c3cccc(c3)OC

>  <MissingHeavyAtoms>  (27) 
0

>  <Model>  (27) 
1

>  <AltIds>  (27) 


>  <pKI>  (27) 
6.57

>  <ChemblID>  (27) 
CHEMBL1233206

>  <standardized_canonical_smiles>  (27) 
COc1cccc(-c2cccc([C@]3(C)CC(=O)N(C)C(N)=N3)c2)c1

$$$$
4GID_0GH_D_501
     RDKit          3D

 47 49  0  0  0  0  0  0  0  0999 V2000
   31.2920   45.7200   51.8460 C   0  0  0  0  0  0  0  0  0  0  0  0
   31.8050   46.7760   52.8270 C   0  0  0  0  0  0  0  0  0  0  0  0
   30.6030   47.4900   53.4520 C   0  0  0  0  0  0  0  0  0  0  0  0
   32.7800   46.1800   54.1700 C   0  0  0  0  0  0  0  0  0  0  0  0
   33.7870   45.3600   53.3290 N   0  0  0  0  0  0  0  0  0  0  0  0
   35.0720   45.6840   53.9680 C   0  0  0  0  0  0  0  0  0  0  0  0
   35.1250   46.1820   55.0940 O   0  0  0  0  0  0  0  0  0  0  0  0
   36.2000   44.7610   53.4940 C   0  0  0  0  0  0  0  0  0  0  0  0
   36.0610   43.3920   54.1700 C   0  0  0  0  0  0  0  0  0  0  0  0
   36.6690   43.3440   55.5730 C   0  0  0  0  0  0  0  0  0  0  0  0
   34.7430   42.8360   54.0800 O   0  0  0  0  0  0  0  0  0  0  0  0
   37.5570   45.3170   53.6250 N   0  0  0  0  0  0  0  0  0  0  0  0
   37.7310   46.4460   52.6990 C   0  0  0  0  0  0  0  0  0  0  0  0
   38.2960   47.6830   53.4020 C   0  0  0  0  0  0  0  0  0  0  0  0
   38.5060   48.8110   52.3870 C   0  0  0  0  0  0  0  0  0  0  0  0
   39.3230   49.8170   52.8980 C   0  0  0  0  0  0  0  0  0  0  0  0
   40.3620   50.3290   52.1270 C   0  0  0  0  0  0  0  0  0  0  0  0
   41.1810   51.3320   52.6320 C   0  0  0  0  0  0  0  0  0  0  0  0
   40.9720   51.8270   53.9160 C   0  0  0  0  0  0  0  0  0  0  0  0
   39.9380   51.3150   54.6910 C   0  0  0  0  0  0  0  0  0  0  0  0
   39.1210   50.3090   54.1820 C   0  0  0  0  0  0  0  0  0  0  0  0
   39.5740   47.3910   54.0670 N   0  0  0  0  0  0  0  0  0  0  0  0
   39.6300   47.0500   55.3630 C   0  0  0  0  0  0  0  0  0  0  0  0
   38.6280   46.8490   56.0470 O   0  0  0  0  0  0  0  0  0  0  0  0
   40.9180   46.8560   55.8570 C   0  0  0  0  0  0  0  0  0  0  0  0
   41.9330   47.6810   55.3860 C   0  0  0  0  0  0  0  0  0  0  0  0
   41.1630   46.0230   56.9460 C   0  0  0  0  0  0  0  0  0  0  0  0
   42.4120   45.9920   57.5610 C   0  0  0  0  0  0  0  0  0  0  0  0
   42.5860   45.3720   58.7290 N   0  0  0  0  0  0  0  0  0  0  0  0
   41.4260   44.5740   59.1530 C   0  0  0  0  0  0  0  0  0  0  0  0
   43.9810   44.5170   58.9140 S   0  0  0  0  0  0  0  0  0  0  0  0
   43.6750   43.1290   59.4810 O   0  0  0  0  0  0  0  0  0  0  0  0
   44.7630   44.3820   57.6060 O   0  0  0  0  0  0  0  0  0  0  0  0
   44.9890   45.4090   60.0790 C   0  0  0  0  0  0  0  0  0  0  0  0
   43.3950   46.8660   57.1080 C   0  0  0  0  0  0  0  0  0  0  0  0
   43.1700   47.7030   56.0200 C   0  0  0  0  0  0  0  0  0  0  0  0
   44.2210   48.4460   55.4890 C   0  0  0  0  0  0  0  0  0  0  0  0
   44.9520   49.1130   56.2190 O   0  0  0  0  0  0  0  0  0  0  0  0
   44.2240   48.5980   54.1580 N   0  0  0  0  0  0  0  0  0  0  0  0
   45.2990   49.3700   53.5150 C   0  0  0  0  0  0  0  0  0  0  0  0
   44.7270   50.6140   52.8330 C   0  0  0  0  0  0  0  0  0  0  0  0
   45.9930   48.5900   52.5960 C   0  0  0  0  0  0  0  0  0  0  0  0
   47.3770   48.4970   52.6860 C   0  0  0  0  0  0  0  0  0  0  0  0
   48.0850   47.6460   51.8430 C   0  0  0  0  0  0  0  0  0  0  0  0
   47.4030   46.8680   50.9160 C   0  0  0  0  0  0  0  0  0  0  0  0
   46.0210   46.9760   50.8070 C   0  0  0  0  0  0  0  0  0  0  0  0
   45.3180   47.8420   51.6370 C   0  0  0  0  0  0  0  0  0  0  0  0
  2  1  1  0
  3  2  1  0
  4  2  1  0
  5  4  1  0
  6  5  1  0
  7  6  2  0
  8  6  1  0
  9  8  1  0
 12  8  1  0
 10  9  1  0
 11  9  1  0
 13 12  1  0
 14 13  1  0
 15 14  1  0
 22 14  1  0
 16 15  1  0
 17 16  2  0
 21 16  1  0
 18 17  1  0
 19 18  2  0
 20 19  1  0
 21 20  2  0
 23 22  1  0
 24 23  2  0
 25 23  1  0
 26 25  2  0
 27 25  1  0
 36 26  1  0
 28 27  2  0
 29 28  1  0
 35 28  1  0
 30 29  1  0
 31 29  1  0
 32 31  2  0
 33 31  2  0
 34 31  1  0
 36 35  2  0
 37 36  1  0
 38 37  2  0
 39 37  1  0
 40 39  1  0
 41 40  1  0
 42 40  1  0
 43 42  2  0
 47 42  1  0
 44 43  1  0
 45 44  2  0
 46 45  1  0
 47 46  2  0
A    1
CBK
A    2
CBL
A    3
CBM
A    4
CBN
A    5
NBO
A    6
CBP
A    7
OBV
A    8
CBG
A    9
CBH
A   10
CBJ
A   11
OBI
A   12
NBF
A   13
CAX
A   14
CAW
A   15
CAY
A   16
CAZ
A   17
CBA
A   18
CBB
A   19
CBC
A   20
CBD
A   21
CBE
A   22
NAV
A   23
CAT
A   24
OAU
A   25
CAP
A   26
CAQ
A   27
CAO
A   28
CAN
A   29
NAE
A   30
CBT
A   31
SAB
A   32
OAC
A   33
OAD
A   34
CAA
A   35
CAS
A   36
CAR
A   37
CAL
A   38
OAM
A   39
NBQ
A   40
CBR
A   41
CBS
A   42
CAI
A   43
CAH
A   44
CAG
A   45
CAF
A   46
CAK
A   47
CAJ
M  END
>  <Id>  (28) 
4GID_0GH_D_501

>  <ChainId>  (28) 
D

>  <AsymId>  (28) 
K

>  <SeqNum>  (28) 
501

>  <Name>  (28) 
N-[(2S)-1-({(2S,3R)-3-hydroxy-1-[(2-methylpropyl)amino]-1-oxobutan-2-yl}amino)-3-phenylpropan-2-yl]-5-[methyl(methylsulfonyl)amino]-N'-[(1R)-1-phenylethyl]benzene-1,3-dicarboxamide

>  <SystematicName>  (28) 
5-[methyl(methylsulfonyl)amino]-N1-[(2S)-1-[[(2S,3R)-1-(2-methylpropylamino)-3-oxidanyl-1-oxidanylidene-butan-2-yl]amino]-3-phenyl-propan-2-yl]-N3-[(1R)-1-phenylethyl]benzene-1,3-dicarboxamide

>  <Synonyms>  (28) 


>  <Type>  (28) 
NON-POLYMER

>  <Formula>  (28) 
C35 H47 N5 O6 S

>  <ObservedFormula>  (28) 
C35 S N5 O6

>  <MolecularWeight>  (28) 
665.843

>  <ModifiedDate>  (28) 
2012-10-05

>  <Parent>  (28) 


>  <OneLetterCode>  (28) 


>  <SubcomponentList>  (28) 


>  <AmbiguousFlag>  (28) 
N

>  <InsertionCode>  (28) 


>  <InstanceId>  (28) 
4GID_0GH_D_501

>  <ChemCompId>  (28) 
0GH

>  <PdbId>  (28) 
4GID

>  <ResidueNumber>  (28) 
501

>  <InChI>  (28) 
InChI=1S/C35H47N5O6S/c1-23(2)21-37-35(44)32(25(4)41)36-22-30(17-26-13-9-7-10-14-26)39-34(43)29-18-28(19-31(20-29)40(5)47(6,45)46)33(42)38-24(3)27-15-11-8-12-16-27/h7-16,18-20,23-25,30,32,36,41H,17,21-22H2,1-6H3,(H,37,44)(H,38,42)(H,39,43)/t24-,25-,30+,32+/m1/s1

>  <InChIKey>  (28) 
UZFAOTIMARRSKT-TYUOOWEOSA-N

>  <SMILES>  (28) 
C[C@H](c1ccccc1)NC(=O)c2cc(cc(c2)N(C)S(=O)(=O)C)C(=O)N[C@@H](Cc3ccccc3)CN[C@@H]([C@@H](C)O)C(=O)NCC(C)C

>  <MissingHeavyAtoms>  (28) 
0

>  <Model>  (28) 
1

>  <AltIds>  (28) 


>  <pKI>  (28) 
7.01

>  <ChemblID>  (28) 
CHEMBL2179132

>  <standardized_canonical_smiles>  (28) 
CC(C)CNC(=O)[C@@H](NC[C@H](Cc1ccccc1)NC(=O)c1cc(C(=O)N[C@H](C)c2ccccc2)cc(N(C)S(C)(=O)=O)c1)[C@@H](C)O

$$$$
4FSE_0VA_E_501
     RDKit          3D

 30 32  0  0  0  0  0  0  0  0999 V2000
   32.5630   21.4840   71.3620 C   0  0  0  0  0  0  0  0  0  0  0  0
   33.8830   21.0820   73.4930 C   0  0  0  0  0  0  0  0  0  0  0  0
   33.6760   20.7910   70.5480 C   0  0  0  0  0  0  0  0  0  0  0  0
   35.0100   20.3810   72.7310 C   0  0  0  0  0  0  0  0  0  0  0  0
   31.9790   15.1890   75.8620 C   0  0  0  0  0  0  0  0  0  0  0  0
   33.8870   15.1830   77.6000 C   0  0  0  0  0  0  0  0  0  0  0  0
   32.5990   21.6990   72.8900 C   0  0  0  0  0  0  0  0  0  0  0  0
   31.1810   21.8330   75.3890 C   0  0  0  0  0  0  0  0  0  0  0  0
   32.5040   15.6670   77.2080 C   0  0  0  0  0  0  0  0  0  0  0  0
   34.1360   13.7050   75.3570 C   0  0  0  0  0  0  0  0  0  0  0  0
   34.9360   20.2110   71.2150 C   0  0  0  0  0  0  0  0  0  0  0  0
   32.7630   14.2370   74.9730 C   0  0  0  0  0  0  0  0  0  0  0  0
   34.6330   14.2230   76.6960 C   0  0  0  0  0  0  0  0  0  0  0  0
   31.7640   22.2570   74.0490 C   0  0  0  0  0  0  0  0  0  0  0  0
   30.3420   22.8610   76.1050 C   0  0  0  0  0  0  0  0  0  0  0  0
   31.4760   20.5960   76.2280 C   0  0  0  0  0  0  0  0  0  0  0  0
   32.3070   19.0800   78.1550 C   0  0  0  0  0  0  0  0  0  0  0  0
   29.6620   22.7770   77.4710 C   0  0  0  0  0  0  0  0  0  0  0  0
   36.7610   18.5010   70.7820 C   0  0  0  0  0  0  0  0  0  0  0  0
   31.5800   16.6380   77.8980 C   0  0  0  0  0  0  0  0  0  0  0  0
   31.1520   23.5880   73.7820 N   0  0  0  0  0  0  0  0  0  0  0  0
   32.2000   20.3930   77.5180 N   0  0  0  0  0  0  0  0  0  0  0  0
   34.9140   12.7720   74.5070 N   0  0  0  0  0  0  0  0  0  0  0  0
   33.0370   18.7800   79.3940 N   0  0  0  0  0  0  0  0  0  0  0  0
   31.5700   18.0370   77.4470 N   0  0  0  0  0  0  0  0  0  0  0  0
   30.8290   19.4000   75.7570 O   0  0  0  0  0  0  0  0  0  0  0  0
   35.9110   19.5830   70.3740 O   0  0  0  0  0  0  0  0  0  0  0  0
   30.2110   24.2220   74.9650 S   0  0  0  0  0  0  0  0  0  0  0  0
   32.0060   13.7300   73.4430 Cl  0  0  0  0  0  0  0  0  0  0  0  0
   36.2180   13.6950   77.2330 Cl  0  0  0  0  0  0  0  0  0  0  0  0
  3  1  2  0
  7  1  1  0
  4  2  1  0
  7  2  2  0
 11  3  1  0
 11  4  2  0
  9  5  2  0
 12  5  1  0
  9  6  1  0
 13  6  2  0
 14  7  1  0
 14  8  1  0
 15  8  2  0
 16  8  1  0
 20  9  1  0
 12 10  2  0
 13 10  1  0
 23 10  1  0
 27 11  1  0
 29 12  1  0
 30 13  1  0
 21 14  2  0
 18 15  1  0
 28 15  1  0
 22 16  1  0
 26 16  2  0
 22 17  1  0
 24 17  2  0
 25 17  1  0
 27 19  1  0
 25 20  1  0
 28 21  1  0
A    1
C01
A    2
C02
A    3
C03
A    4
C04
A    5
C05
A    6
C06
A    7
C07
A    8
C08
A    9
C09
A   10
C10
A   11
C11
A   12
C12
A   13
C13
A   14
C14
A   15
C15
A   16
C16
A   17
C17
A   18
C18
A   19
C19
A   20
C20
A   21
N21
A   22
N22
A   23
N23
A   24
N24
A   25
N25
A   26
O26
A   27
O27
A   28
S28
A   29
CL1
A   30
CL2
M  END
>  <Id>  (29) 
4FSE_0VA_E_501

>  <ChainId>  (29) 
E

>  <AsymId>  (29) 
N

>  <SeqNum>  (29) 
501

>  <Name>  (29) 
N-[N-(4-amino-3,5-dichlorobenzyl)carbamimidoyl]-3-(4-methoxyphenyl)-5-methyl-1,2-thiazole-4-carboxamide

>  <SystematicName>  (29) 
N-[N-[[4-azanyl-3,5-bis(chloranyl)phenyl]methyl]carbamimidoyl]-3-(4-methoxyphenyl)-5-methyl-1,2-thiazole-4-carboxamide

>  <Synonyms>  (29) 


>  <Type>  (29) 
NON-POLYMER

>  <Formula>  (29) 
C20 H19 Cl2 N5 O2 S

>  <ObservedFormula>  (29) 
C20 S Cl2 N5 O2

>  <MolecularWeight>  (29) 
464.368

>  <ModifiedDate>  (29) 
2012-10-05

>  <Parent>  (29) 


>  <OneLetterCode>  (29) 


>  <SubcomponentList>  (29) 


>  <AmbiguousFlag>  (29) 
N

>  <InsertionCode>  (29) 


>  <InstanceId>  (29) 
4FSE_0VA_E_501

>  <ChemCompId>  (29) 
0VA

>  <PdbId>  (29) 
4FSE

>  <ResidueNumber>  (29) 
501

>  <InChI>  (29) 
InChI=1S/C20H19Cl2N5O2S/c1-10-16(18(27-30-10)12-3-5-13(29-2)6-4-12)19(28)26-20(24)25-9-11-7-14(21)17(23)15(22)8-11/h3-8H,9,23H2,1-2H3,(H3,24,25,26,28)

>  <InChIKey>  (29) 
DPJQBOWFYJTIJB-UHFFFAOYSA-N

>  <SMILES>  (29) 
[H]/N=C(/NCc1cc(c(c(c1)Cl)N)Cl)\NC(=O)c2c(snc2c3ccc(cc3)OC)C

>  <MissingHeavyAtoms>  (29) 
0

>  <Model>  (29) 
1

>  <AltIds>  (29) 


>  <pKI>  (29) 
7.4

>  <ChemblID>  (29) 
CHEMBL2178178

>  <standardized_canonical_smiles>  (29) 
COc1ccc(-c2nsc(C)c2C(=O)/N=C(\N)NCc2cc(Cl)c(N)c(Cl)c2)cc1

$$$$
4FSL_0VB_E_501
     RDKit          3D

 33 35  0  0  0  0  0  0  0  0999 V2000
   32.6200   21.4110   72.9920 C   0  0  0  0  0  0  0  0  0  0  0  0
   34.3360   20.5180   74.6980 C   0  0  0  0  0  0  0  0  0  0  0  0
   33.4920   20.8310   71.8710 C   0  0  0  0  0  0  0  0  0  0  0  0
   35.2260   19.9340   73.6160 C   0  0  0  0  0  0  0  0  0  0  0  0
   34.2200   14.9580   79.2490 C   0  0  0  0  0  0  0  0  0  0  0  0
   32.3200   14.8560   77.5340 C   0  0  0  0  0  0  0  0  0  0  0  0
   33.0430   21.2900   74.4610 C   0  0  0  0  0  0  0  0  0  0  0  0
   31.5290   21.4180   76.8500 C   0  0  0  0  0  0  0  0  0  0  0  0
   32.7860   15.3570   78.9020 C   0  0  0  0  0  0  0  0  0  0  0  0
   35.1360   14.0710   78.4100 C   0  0  0  0  0  0  0  0  0  0  0  0
   34.6340   13.5300   77.0680 C   0  0  0  0  0  0  0  0  0  0  0  0
   34.8020   20.0830   72.1570 C   0  0  0  0  0  0  0  0  0  0  0  0
   33.2290   13.9720   76.6930 C   0  0  0  0  0  0  0  0  0  0  0  0
   32.1350   21.8320   75.5430 C   0  0  0  0  0  0  0  0  0  0  0  0
   30.6570   22.4720   77.4960 C   0  0  0  0  0  0  0  0  0  0  0  0
   31.6490   20.1560   77.6520 C   0  0  0  0  0  0  0  0  0  0  0  0
   36.4100   13.2100   75.1730 C   0  0  0  0  0  0  0  0  0  0  0  0
   32.4460   18.8290   79.6920 C   0  0  0  0  0  0  0  0  0  0  0  0
   36.5250   13.7560   78.9670 C   0  0  0  0  0  0  0  0  0  0  0  0
   29.8580   22.4810   78.8000 C   0  0  0  0  0  0  0  0  0  0  0  0
   37.3260   12.4670   74.1960 C   0  0  0  0  0  0  0  0  0  0  0  0
   36.8500   18.6540   71.4550 C   0  0  0  0  0  0  0  0  0  0  0  0
   31.7420   16.2550   79.5030 C   0  0  0  0  0  0  0  0  0  0  0  0
   31.6930   23.2130   75.2170 N   0  0  0  0  0  0  0  0  0  0  0  0
   32.3540   20.0830   78.9450 N   0  0  0  0  0  0  0  0  0  0  0  0
   33.1180   18.6350   80.9890 N   0  0  0  0  0  0  0  0  0  0  0  0
   35.4750   12.6870   76.1950 N   0  0  0  0  0  0  0  0  0  0  0  0
   31.7730   17.6620   79.0810 N   0  0  0  0  0  0  0  0  0  0  0  0
   31.0510   19.0210   77.0260 O   0  0  0  0  0  0  0  0  0  0  0  0
   36.4880   14.6320   75.0590 O   0  0  0  0  0  0  0  0  0  0  0  0
   35.7120   19.5000   71.2240 O   0  0  0  0  0  0  0  0  0  0  0  0
   30.7080   23.8450   76.3650 S   0  0  0  0  0  0  0  0  0  0  0  0
   32.4150   13.4900   75.1950 Cl  0  0  0  0  0  0  0  0  0  0  0  0
  3  1  2  0
  7  1  1  0
  4  2  1  0
  7  2  2  0
 12  3  1  0
 12  4  2  0
  9  5  2  0
 10  5  1  0
  9  6  1  0
 13  6  2  0
 14  7  1  0
 14  8  1  0
 15  8  2  0
 16  8  1  0
 23  9  1  0
 11 10  2  0
 19 10  1  0
 13 11  1  0
 27 11  1  0
 31 12  1  0
 33 13  1  0
 24 14  2  0
 20 15  1  0
 32 15  1  0
 25 16  1  0
 29 16  2  0
 21 17  1  0
 27 17  1  0
 30 17  2  0
 25 18  1  0
 26 18  2  0
 28 18  1  0
 31 22  1  0
 28 23  1  0
 32 24  1  0
A    1
C01
A    2
C02
A    3
C03
A    4
C04
A    5
C05
A    6
C06
A    7
C07
A    8
C08
A    9
C09
A   10
C10
A   11
C11
A   12
C12
A   13
C13
A   14
C14
A   15
C15
A   16
C16
A   17
C17
A   18
C18
A   19
C19
A   20
C20
A   21
C21
A   22
C22
A   23
C23
A   24
N24
A   25
N25
A   26
N26
A   27
N27
A   28
N28
A   29
O29
A   30
O30
A   31
O31
A   32
S32
A   33
CL1
M  END
>  <Id>  (30) 
4FSL_0VB_E_501

>  <ChainId>  (30) 
E

>  <AsymId>  (30) 
Q

>  <SeqNum>  (30) 
501

>  <Name>  (30) 
N-{N-[4-(acetylamino)-3-chloro-5-methylbenzyl]carbamimidoyl}-3-(4-methoxyphenyl)-5-methyl-1,2-thiazole-4-carboxamide

>  <SystematicName>  (30) 
N-[N-[(4-acetamido-3-chloranyl-5-methyl-phenyl)methyl]carbamimidoyl]-3-(4-methoxyphenyl)-5-methyl-1,2-thiazole-4-carboxamide

>  <Synonyms>  (30) 


>  <Type>  (30) 
NON-POLYMER

>  <Formula>  (30) 
C23 H24 Cl N5 O3 S

>  <ObservedFormula>  (30) 
C23 S Cl N5 O3

>  <MolecularWeight>  (30) 
485.986

>  <ModifiedDate>  (30) 
2012-10-05

>  <Parent>  (30) 


>  <OneLetterCode>  (30) 


>  <SubcomponentList>  (30) 


>  <AmbiguousFlag>  (30) 
N

>  <InsertionCode>  (30) 


>  <InstanceId>  (30) 
4FSL_0VB_E_501

>  <ChemCompId>  (30) 
0VB

>  <PdbId>  (30) 
4FSL

>  <ResidueNumber>  (30) 
501

>  <InChI>  (30) 
InChI=1S/C23H24ClN5O3S/c1-12-9-15(10-18(24)20(12)27-14(3)30)11-26-23(25)28-22(31)19-13(2)33-29-21(19)16-5-7-17(32-4)8-6-16/h5-10H,11H2,1-4H3,(H,27,30)(H3,25,26,28,31)

>  <InChIKey>  (30) 
MQPJKTGBSCCWTI-UHFFFAOYSA-N

>  <SMILES>  (30) 
[H]/N=C(\NCc1cc(c(c(c1)Cl)NC(=O)C)C)/NC(=O)c2c(snc2c3ccc(cc3)OC)C

>  <MissingHeavyAtoms>  (30) 
0

>  <Model>  (30) 
1

>  <AltIds>  (30) 


>  <pKI>  (30) 
7.7

>  <ChemblID>  (30) 
CHEMBL2178181

>  <standardized_canonical_smiles>  (30) 
COc1ccc(-c2nsc(C)c2C(=O)/N=C(\N)NCc2cc(C)c(NC(C)=O)c(Cl)c2)cc1

$$$$
5HD0_60Y_B_502
     RDKit          3D

 32 36  0  0  0  0  0  0  0  0999 V2000
   15.8730   34.0050   53.8490 C   0  0  0  0  0  0  0  0  0  0  0  0
   27.7570   35.4310   56.5770 C   0  0  0  0  0  0  0  0  0  0  0  0
   25.2380   34.7350   56.5510 C   0  0  0  0  0  0  0  0  0  0  0  0
   14.7100   34.7970   56.2400 C   0  0  0  0  0  0  0  0  0  0  0  0
   22.8770   35.1060   55.8170 C   0  0  0  0  0  0  0  0  0  0  0  0
   27.3400   34.4170   57.3820 C   0  0  0  0  0  0  0  0  0  0  0  0
   13.9090   34.3580   55.1890 C   0  0  0  0  0  0  0  0  0  0  0  0
   16.6880   34.4290   54.9010 C   0  0  0  0  0  0  0  0  0  0  0  0
   26.8920   36.0730   55.7420 C   0  0  0  0  0  0  0  0  0  0  0  0
   16.0980   34.8270   56.0980 C   0  0  0  0  0  0  0  0  0  0  0  0
   14.4930   33.9650   53.9990 C   0  0  0  0  0  0  0  0  0  0  0  0
   13.6700   35.5800   58.4670 N   0  0  0  0  0  0  0  0  0  0  0  0
   14.1110   35.2320   57.4750 C   0  0  0  0  0  0  0  0  0  0  0  0
   18.1720   34.3810   54.7920 C   0  0  0  0  0  0  0  0  0  0  0  0
   18.8650   34.0850   53.6460 C   0  0  0  0  0  0  0  0  0  0  0  0
   19.0760   34.5930   55.9100 C   0  0  0  0  0  0  0  0  0  0  0  0
   20.3770   34.4560   55.5460 C   0  0  0  0  0  0  0  0  0  0  0  0
   20.5590   34.0910   53.8800 S   0  0  0  0  0  0  0  0  0  0  0  0
   21.5760   34.5770   56.4540 C   0  0  0  0  0  0  0  0  0  0  0  0
   23.9170   34.4110   56.5820 N   0  0  0  0  0  0  0  0  0  0  0  0
   25.6020   35.7150   55.6970 N   0  0  0  0  0  0  0  0  0  0  0  0
   29.0590   35.8110   56.6110 F   0  0  0  0  0  0  0  0  0  0  0  0
   26.0500   34.0550   57.3950 N   0  0  0  0  0  0  0  0  0  0  0  0
   23.4020   33.3320   57.4310 C   0  0  0  0  0  0  0  0  0  0  0  0
   21.9570   33.1670   56.9550 C   0  0  0  0  0  0  0  0  0  0  0  0
   21.0900   32.6720   58.1040 C   0  0  0  0  0  0  0  0  0  0  0  0
   20.8530   31.4890   58.2320 O   0  0  0  0  0  0  0  0  0  0  0  0
   20.5740   33.6230   58.9700 N   0  0  0  0  0  0  0  0  0  0  0  0
   19.8640   33.1440   60.1650 C   0  0  0  0  0  0  0  0  0  0  0  0
   20.7300   34.9790   58.7590 C   0  0  0  0  0  0  0  0  0  0  0  0
   20.3850   35.8110   59.6960 N   0  0  0  0  0  0  0  0  0  0  0  0
   21.3130   35.4190   57.6350 N   0  0  0  0  0  0  0  0  0  0  0  0
  8  1  2  0
 11  1  1  0
  6  2  2  0
  9  2  1  0
 22  2  1  0
 20  3  1  0
 21  3  1  0
 23  3  2  0
  7  4  1  0
 10  4  2  0
 13  4  1  0
 19  5  1  0
 20  5  1  0
 23  6  1  0
 11  7  2  0
 10  8  1  0
 14  8  1  0
 21  9  2  0
 13 12  3  0
 15 14  2  0
 16 14  1  0
 18 15  1  0
 17 16  2  0
 18 17  1  0
 19 17  1  0
 25 19  1  0
 32 19  1  0
 24 20  1  0
 25 24  1  0
 26 25  1  0
 27 26  2  0
 28 26  1  0
 29 28  1  0
 30 28  1  0
 31 30  2  0
 32 30  1  0
A    1
C20
A    2
C13
A    3
C11
A    4
C17
A    5
C10
A    6
C12
A    7
C18
A    8
C15
A    9
C14
A   10
C16
A   11
C19
A   12
N6
A   13
C21
A   14
C1
A   15
C
A   16
C2
A   17
C3
A   18
S
A   19
C4
A   20
N3
A   21
N5
A   22
F
A   23
N4
A   24
C9
A   25
C8
A   26
C7
A   27
O
A   28
N2
A   29
C6
A   30
C5
A   31
N1
A   32
N
M  END
>  <Id>  (31) 
5HD0_60Y_B_502

>  <ChainId>  (31) 
B

>  <AsymId>  (31) 
F

>  <SeqNum>  (31) 
502

>  <Name>  (31) 
3-{5-[(2E,4aR,7aR)-6-(5-fluoropyrimidin-2-yl)-2-imino-3-methyl-4-oxooctahydro-7aH-pyrrolo[3,4-d]pyrimidin-7a-yl]thiophen-3-yl}benzonitrile

>  <SystematicName>  (31) 
3-[5-[(4~{a}~{R},7~{a}~{R})-2-azanylidene-6-(5-fluoranylpyrimidin-2-yl)-3-methyl-4-oxidanylidene-1,4~{a},5,7-tetrahydropyrrolo[3,4-d]pyrimidin-7~{a}-yl]thiophen-3-yl]benzenecarbonitrile

>  <Synonyms>  (31) 


>  <Type>  (31) 
NON-POLYMER

>  <Formula>  (31) 
C22 H18 F N7 O S

>  <ObservedFormula>  (31) 
C22 S F N7 O

>  <MolecularWeight>  (31) 
447.488

>  <ModifiedDate>  (31) 
2016-03-11

>  <Parent>  (31) 


>  <OneLetterCode>  (31) 


>  <SubcomponentList>  (31) 


>  <AmbiguousFlag>  (31) 
N

>  <InsertionCode>  (31) 


>  <InstanceId>  (31) 
5HD0_60Y_B_502

>  <ChemCompId>  (31) 
60Y

>  <PdbId>  (31) 
5HD0

>  <ResidueNumber>  (31) 
502

>  <InChI>  (31) 
InChI=1S/C22H18FN7OS/c1-29-19(31)17-10-30(21-26-8-16(23)9-27-21)12-22(17,28-20(29)25)18-6-15(11-32-18)14-4-2-3-13(5-14)7-24/h2-6,8-9,11,17H,10,12H2,1H3,(H2,25,28)/t17-,22-/m0/s1

>  <InChIKey>  (31) 
PTLJUNIICOHEHE-JTSKRJEESA-N

>  <SMILES>  (31) 
[H]/N=C/1\N[C@]2(CN(C[C@H]2C(=O)N1C)c3ncc(cn3)F)c4cc(cs4)c5cccc(c5)C#N

>  <MissingHeavyAtoms>  (31) 
0

>  <Model>  (31) 
1

>  <AltIds>  (31) 


>  <pKI>  (31) 
8.4

>  <ChemblID>  (31) 
CHEMBL2178718

>  <standardized_canonical_smiles>  (31) 
CN1C(=O)[C@@H]2CN(c3ncc(F)cn3)C[C@]2(c2cc(-c3cccc(C#N)c3)cs2)N=C1N

$$$$
4H3F_10O_B_503
     RDKit          3D

 33 37  0  0  0  0  0  0  0  0999 V2000
   21.2290   34.8100   55.3690 C   0  0  0  0  0  0  0  0  0  0  0  0
   21.9060   33.5100   55.8440 C   0  0  0  0  0  0  0  0  0  0  0  0
   20.7050   33.8540   58.0110 N   0  0  0  0  0  0  0  0  0  0  0  0
   20.6830   35.2240   57.7770 C   0  0  0  0  0  0  0  0  0  0  0  0
   21.2740   32.9320   57.1270 C   0  0  0  0  0  0  0  0  0  0  0  0
   20.9400   35.7000   56.5140 N   0  0  0  0  0  0  0  0  0  0  0  0
   19.9830   34.4210   54.6070 C   0  0  0  0  0  0  0  0  0  0  0  0
   23.5500   35.0220   55.1630 N   0  0  0  0  0  0  0  0  0  0  0  0
   22.3110   35.4680   54.5130 C   0  0  0  0  0  0  0  0  0  0  0  0
   23.3880   33.8500   56.0190 C   0  0  0  0  0  0  0  0  0  0  0  0
   18.6140   34.4950   55.0760 C   0  0  0  0  0  0  0  0  0  0  0  0
   17.6590   34.0510   54.1330 C   0  0  0  0  0  0  0  0  0  0  0  0
   19.9810   33.7980   53.0270 S   0  0  0  0  0  0  0  0  0  0  0  0
   18.2800   33.6290   52.9380 C   0  0  0  0  0  0  0  0  0  0  0  0
   24.7440   35.6830   54.9650 C   0  0  0  0  0  0  0  0  0  0  0  0
   13.4030   36.0660   57.8390 N   0  0  0  0  0  0  0  0  0  0  0  0
   20.4190   36.0710   58.7650 N   0  0  0  0  0  0  0  0  0  0  0  0
   16.1790   34.0310   54.4200 C   0  0  0  0  0  0  0  0  0  0  0  0
   13.7680   35.4570   56.9260 C   0  0  0  0  0  0  0  0  0  0  0  0
   21.2900   31.7210   57.3130 O   0  0  0  0  0  0  0  0  0  0  0  0
   24.6990   36.7480   54.1300 N   0  0  0  0  0  0  0  0  0  0  0  0
   15.6340   34.7410   55.5170 C   0  0  0  0  0  0  0  0  0  0  0  0
   20.0910   33.3280   59.2630 C   0  0  0  0  0  0  0  0  0  0  0  0
   14.2510   34.7170   55.8040 C   0  0  0  0  0  0  0  0  0  0  0  0
   15.2810   33.2850   53.6180 C   0  0  0  0  0  0  0  0  0  0  0  0
   25.9660   35.2900   55.5920 C   0  0  0  0  0  0  0  0  0  0  0  0
   13.8880   33.2590   53.9030 C   0  0  0  0  0  0  0  0  0  0  0  0
   25.8060   37.4730   53.8610 C   0  0  0  0  0  0  0  0  0  0  0  0
   13.3600   33.9760   54.9990 C   0  0  0  0  0  0  0  0  0  0  0  0
   27.1320   36.0470   55.3150 C   0  0  0  0  0  0  0  0  0  0  0  0
   27.0570   37.1570   54.4350 C   0  0  0  0  0  0  0  0  0  0  0  0
   25.7430   38.5610   53.0050 O   0  0  0  0  0  0  0  0  0  0  0  0
   24.4560   38.8280   52.4590 C   0  0  0  0  0  0  0  0  0  0  0  0
  2  1  1  0
  6  1  1  0
  7  1  1  0
  9  1  1  0
  5  2  1  0
 10  2  1  0
  4  3  1  0
  5  3  1  0
 23  3  1  0
  6  4  1  0
 17  4  2  0
 20  5  2  0
 11  7  2  0
 13  7  1  0
  9  8  1  0
 10  8  1  0
 15  8  1  0
 12 11  1  0
 14 12  2  0
 18 12  1  0
 14 13  1  0
 21 15  2  0
 26 15  1  0
 19 16  3  0
 22 18  2  0
 25 18  1  0
 24 19  1  0
 28 21  1  0
 24 22  1  0
 29 24  2  0
 27 25  2  0
 30 26  2  0
 29 27  1  0
 31 28  2  0
 32 28  1  0
 31 30  1  0
 33 32  1  0
A    1
C1
A    2
C2
A    3
N1
A    4
C3
A    5
C4
A    6
N2
A    7
C5
A    8
N3
A    9
C6
A   10
C7
A   11
C8
A   12
C9
A   13
S1
A   14
C10
A   15
C11
A   16
N4
A   17
N5
A   18
C12
A   19
C13
A   20
O1
A   21
N6
A   22
C14
A   23
C15
A   24
C16
A   25
C17
A   26
C18
A   27
C19
A   28
C20
A   29
C21
A   30
C22
A   31
C23
A   32
O2
A   33
C24
M  END
>  <Id>  (32) 
4H3F_10O_B_503

>  <ChainId>  (32) 
B

>  <AsymId>  (32) 
G

>  <SeqNum>  (32) 
503

>  <Name>  (32) 
3-{5-[(2E,4aR,7aR)-2-imino-6-(6-methoxypyridin-2-yl)-3-methyl-4-oxooctahydro-7aH-pyrrolo[3,4-d]pyrimidin-7a-yl]thiophen-3-yl}benzonitrile

>  <SystematicName>  (32) 
3-[5-[(4aR,7aR)-2-azanylidene-6-(6-methoxypyridin-2-yl)-3-methyl-4-oxidanylidene-1,4a,5,7-tetrahydropyrrolo[3,4-d]pyrimidin-7a-yl]thiophen-3-yl]benzenecarbonitrile

>  <Synonyms>  (32) 


>  <Type>  (32) 
NON-POLYMER

>  <Formula>  (32) 
C24 H22 N6 O2 S

>  <ObservedFormula>  (32) 
C24 S N6 O2

>  <MolecularWeight>  (32) 
458.535

>  <ModifiedDate>  (32) 
2012-11-02

>  <Parent>  (32) 


>  <OneLetterCode>  (32) 


>  <SubcomponentList>  (32) 


>  <AmbiguousFlag>  (32) 
N

>  <InsertionCode>  (32) 


>  <InstanceId>  (32) 
4H3F_10O_B_503

>  <ChemCompId>  (32) 
10O

>  <PdbId>  (32) 
4H3F

>  <ResidueNumber>  (32) 
503

>  <InChI>  (32) 
InChI=1S/C24H22N6O2S/c1-29-22(31)18-12-30(20-7-4-8-21(27-20)32-2)14-24(18,28-23(29)26)19-10-17(13-33-19)16-6-3-5-15(9-16)11-25/h3-10,13,18H,12,14H2,1-2H3,(H2,26,28)/t18-,24-/m0/s1

>  <InChIKey>  (32) 
DHDYCYIAHXOSEU-UUOWRZLLSA-N

>  <SMILES>  (32) 
[H]/N=C/1\N[C@]2(CN(C[C@H]2C(=O)N1C)c3cccc(n3)OC)c4cc(cs4)c5cccc(c5)C#N

>  <MissingHeavyAtoms>  (32) 
0

>  <Model>  (32) 
1

>  <AltIds>  (32) 


>  <pKI>  (32) 
9.0

>  <ChemblID>  (32) 
CHEMBL2178715

>  <standardized_canonical_smiles>  (32) 
COc1cccc(N2C[C@H]3C(=O)N(C)C(N)=N[C@@]3(c3cc(-c4cccc(C#N)c4)cs3)C2)n1

$$$$
4H3G_10Q_B_503
     RDKit          3D

 33 37  0  0  0  0  0  0  0  0999 V2000
   21.2500   34.6960   56.5010 C   0  0  0  0  0  0  0  0  0  0  0  0
   21.6990   33.2900   56.9270 C   0  0  0  0  0  0  0  0  0  0  0  0
   20.4630   33.7310   59.0780 N   0  0  0  0  0  0  0  0  0  0  0  0
   20.6000   35.1060   58.8790 C   0  0  0  0  0  0  0  0  0  0  0  0
   20.9170   32.7670   58.1730 C   0  0  0  0  0  0  0  0  0  0  0  0
   21.0220   35.5690   57.6640 N   0  0  0  0  0  0  0  0  0  0  0  0
   20.0280   34.5290   55.6200 C   0  0  0  0  0  0  0  0  0  0  0  0
   23.5800   34.6280   56.3940 N   0  0  0  0  0  0  0  0  0  0  0  0
   22.4250   35.2580   55.7580 C   0  0  0  0  0  0  0  0  0  0  0  0
   23.2250   33.4080   57.1420 C   0  0  0  0  0  0  0  0  0  0  0  0
   18.6470   34.5740   56.0510 C   0  0  0  0  0  0  0  0  0  0  0  0
   17.7180   34.3760   55.0000 C   0  0  0  0  0  0  0  0  0  0  0  0
   20.0720   34.2410   53.9490 S   0  0  0  0  0  0  0  0  0  0  0  0
   18.3700   34.1760   53.7630 C   0  0  0  0  0  0  0  0  0  0  0  0
   24.8850   35.1230   56.3470 C   0  0  0  0  0  0  0  0  0  0  0  0
   13.3910   35.9680   58.8270 N   0  0  0  0  0  0  0  0  0  0  0  0
   20.3120   35.9740   59.8600 N   0  0  0  0  0  0  0  0  0  0  0  0
   16.2290   34.3760   55.2210 C   0  0  0  0  0  0  0  0  0  0  0  0
   25.4700   35.9540   55.3120 C   0  0  0  0  0  0  0  0  0  0  0  0
   13.7740   35.4990   57.8400 C   0  0  0  0  0  0  0  0  0  0  0  0
   20.7200   31.5610   58.3130 O   0  0  0  0  0  0  0  0  0  0  0  0
   26.8130   36.3670   55.4430 C   0  0  0  0  0  0  0  0  0  0  0  0
   15.6760   34.9260   56.4010 C   0  0  0  0  0  0  0  0  0  0  0  0
   19.7900   33.2500   60.3230 C   0  0  0  0  0  0  0  0  0  0  0  0
   14.2800   34.9260   56.6280 C   0  0  0  0  0  0  0  0  0  0  0  0
   25.6570   34.7470   57.4200 N   0  0  0  0  0  0  0  0  0  0  0  0
   15.3320   33.8190   54.2690 C   0  0  0  0  0  0  0  0  0  0  0  0
   26.9440   35.1740   57.5320 C   0  0  0  0  0  0  0  0  0  0  0  0
   13.9300   33.8160   54.4890 C   0  0  0  0  0  0  0  0  0  0  0  0
   27.5650   35.9760   56.5650 C   0  0  0  0  0  0  0  0  0  0  0  0
   13.3910   34.3720   55.6750 C   0  0  0  0  0  0  0  0  0  0  0  0
   24.7780   36.4040   54.1230 C   0  0  0  0  0  0  0  0  0  0  0  0
   24.1800   36.7370   53.1920 N   0  0  0  0  0  0  0  0  0  0  0  0
  2  1  1  0
  6  1  1  0
  7  1  1  0
  9  1  1  0
  5  2  1  0
 10  2  1  0
  4  3  1  0
  5  3  1  0
 24  3  1  0
  6  4  1  0
 17  4  2  0
 21  5  2  0
 11  7  2  0
 13  7  1  0
  9  8  1  0
 10  8  1  0
 15  8  1  0
 12 11  1  0
 14 12  2  0
 18 12  1  0
 14 13  1  0
 19 15  2  0
 26 15  1  0
 20 16  3  0
 23 18  2  0
 27 18  1  0
 22 19  1  0
 32 19  1  0
 25 20  1  0
 30 22  2  0
 25 23  1  0
 31 25  2  0
 28 26  2  0
 29 27  2  0
 30 28  1  0
 31 29  1  0
 33 32  3  0
A    1
C1
A    2
C2
A    3
N1
A    4
C3
A    5
C4
A    6
N2
A    7
C5
A    8
N3
A    9
C6
A   10
C7
A   11
C8
A   12
C9
A   13
S1
A   14
C10
A   15
C11
A   16
N4
A   17
N5
A   18
C12
A   19
C13
A   20
C14
A   21
O1
A   22
C15
A   23
C16
A   24
C17
A   25
C18
A   26
N6
A   27
C19
A   28
C20
A   29
C21
A   30
C22
A   31
C23
A   32
C24
A   33
N7
M  END
>  <Id>  (33) 
4H3G_10Q_B_503

>  <ChainId>  (33) 
B

>  <AsymId>  (33) 
G

>  <SeqNum>  (33) 
503

>  <Name>  (33) 
2-{(2E,4aR,7aR)-7a-[4-(3-cyanophenyl)thiophen-2-yl]-2-imino-3-methyl-4-oxooctahydro-6H-pyrrolo[3,4-d]pyrimidin-6-yl}pyridine-3-carbonitrile

>  <SystematicName>  (33) 
2-[(4aR,7aR)-2-azanylidene-7a-[4-(3-cyanophenyl)thiophen-2-yl]-3-methyl-4-oxidanylidene-1,4a,5,7-tetrahydropyrrolo[3,4-d]pyrimidin-6-yl]pyridine-3-carbonitrile

>  <Synonyms>  (33) 


>  <Type>  (33) 
NON-POLYMER

>  <Formula>  (33) 
C24 H19 N7 O S

>  <ObservedFormula>  (33) 
C24 S N7 O

>  <MolecularWeight>  (33) 
453.519

>  <ModifiedDate>  (33) 
2012-11-02

>  <Parent>  (33) 


>  <OneLetterCode>  (33) 


>  <SubcomponentList>  (33) 


>  <AmbiguousFlag>  (33) 
N

>  <InsertionCode>  (33) 


>  <InstanceId>  (33) 
4H3G_10Q_B_503

>  <ChemCompId>  (33) 
10Q

>  <PdbId>  (33) 
4H3G

>  <ResidueNumber>  (33) 
503

>  <InChI>  (33) 
InChI=1S/C24H19N7OS/c1-30-22(32)19-12-31(21-17(11-26)6-3-7-28-21)14-24(19,29-23(30)27)20-9-18(13-33-20)16-5-2-4-15(8-16)10-25/h2-9,13,19H,12,14H2,1H3,(H2,27,29)/t19-,24-/m0/s1

>  <InChIKey>  (33) 
LWVMTILRDSZVMA-CYFREDJKSA-N

>  <SMILES>  (33) 
[H]/N=C/1\N[C@]2(CN(C[C@H]2C(=O)N1C)c3c(cccn3)C#N)c4cc(cs4)c5cccc(c5)C#N

>  <MissingHeavyAtoms>  (33) 
0

>  <Model>  (33) 
1

>  <AltIds>  (33) 


>  <pKI>  (33) 
8.22

>  <ChemblID>  (33) 
CHEMBL2178713

>  <standardized_canonical_smiles>  (33) 
CN1C(=O)[C@@H]2CN(c3ncccc3C#N)C[C@]2(c2cc(-c3cccc(C#N)c3)cs2)N=C1N

$$$$
4H3I_10V_B_503
     RDKit          3D

 33 37  0  0  0  0  0  0  0  0999 V2000
   14.7590   34.1540   53.3990 C   0  0  0  0  0  0  0  0  0  0  0  0
   14.0820   34.5500   54.5770 C   0  0  0  0  0  0  0  0  0  0  0  0
   14.8490   34.8350   55.7320 C   0  0  0  0  0  0  0  0  0  0  0  0
   16.2580   34.7250   55.7080 C   0  0  0  0  0  0  0  0  0  0  0  0
   16.9540   34.3320   54.5370 C   0  0  0  0  0  0  0  0  0  0  0  0
   16.1760   34.0480   53.3840 C   0  0  0  0  0  0  0  0  0  0  0  0
   18.4630   34.2190   54.5400 C   0  0  0  0  0  0  0  0  0  0  0  0
   19.2810   34.6360   55.6200 C   0  0  0  0  0  0  0  0  0  0  0  0
   20.7030   34.4300   55.4080 C   0  0  0  0  0  0  0  0  0  0  0  0
   20.9220   33.7310   53.8770 S   0  0  0  0  0  0  0  0  0  0  0  0
   19.2490   33.6940   53.4970 C   0  0  0  0  0  0  0  0  0  0  0  0
   21.8290   34.7650   56.3630 C   0  0  0  0  0  0  0  0  0  0  0  0
   22.4180   33.4530   56.9210 C   0  0  0  0  0  0  0  0  0  0  0  0
   21.6450   32.8610   58.1400 C   0  0  0  0  0  0  0  0  0  0  0  0
   20.8930   33.7570   58.9090 N   0  0  0  0  0  0  0  0  0  0  0  0
   20.8510   35.1260   58.6630 C   0  0  0  0  0  0  0  0  0  0  0  0
   21.3540   35.6170   57.4830 N   0  0  0  0  0  0  0  0  0  0  0  0
   20.3300   35.9730   59.5530 N   0  0  0  0  0  0  0  0  0  0  0  0
   23.0270   35.4860   55.7070 C   0  0  0  0  0  0  0  0  0  0  0  0
   20.1220   33.1510   60.0360 C   0  0  0  0  0  0  0  0  0  0  0  0
   21.7110   31.6620   58.3830 O   0  0  0  0  0  0  0  0  0  0  0  0
   14.2050   35.2400   56.9500 C   0  0  0  0  0  0  0  0  0  0  0  0
   13.7130   35.5690   57.9450 N   0  0  0  0  0  0  0  0  0  0  0  0
   23.8720   33.7780   57.2520 C   0  0  0  0  0  0  0  0  0  0  0  0
   24.2010   34.9190   56.3800 N   0  0  0  0  0  0  0  0  0  0  0  0
   27.7830   36.0180   56.8310 C   0  0  0  0  0  0  0  0  0  0  0  0
   26.5130   35.4810   57.2010 C   0  0  0  0  0  0  0  0  0  0  0  0
   25.4980   35.4210   56.1690 C   0  0  0  0  0  0  0  0  0  0  0  0
   26.9860   36.3740   54.5900 C   0  0  0  0  0  0  0  0  0  0  0  0
   28.0230   36.4660   55.5240 C   0  0  0  0  0  0  0  0  0  0  0  0
   27.1600   35.1810   59.5730 C   0  0  0  0  0  0  0  0  0  0  0  0
   26.2280   35.0170   58.5120 O   0  0  0  0  0  0  0  0  0  0  0  0
   25.7680   35.8680   54.9050 N   0  0  0  0  0  0  0  0  0  0  0  0
  2  1  2  0
  6  1  1  0
  3  2  1  0
  4  3  2  0
 22  3  1  0
  5  4  1  0
  6  5  2  0
  7  5  1  0
  8  7  1  0
 11  7  2  0
  9  8  2  0
 10  9  1  0
 12  9  1  0
 11 10  1  0
 13 12  1  0
 17 12  1  0
 19 12  1  0
 14 13  1  0
 24 13  1  0
 15 14  1  0
 21 14  2  0
 16 15  1  0
 20 15  1  0
 17 16  1  0
 18 16  2  0
 25 19  1  0
 23 22  3  0
 25 24  1  0
 28 25  1  0
 27 26  2  0
 30 26  1  0
 28 27  1  0
 32 27  1  0
 33 28  2  0
 30 29  2  0
 33 29  1  0
 32 31  1  0
A    1
C1
A    2
C2
A    3
C3
A    4
C4
A    5
C5
A    6
C6
A    7
C7
A    8
C8
A    9
C9
A   10
S1
A   11
C10
A   12
C11
A   13
C12
A   14
C13
A   15
N1
A   16
C14
A   17
N2
A   18
N3
A   19
C15
A   20
C16
A   21
O1
A   22
C17
A   23
N4
A   24
C18
A   25
N5
A   26
C19
A   27
C20
A   28
C21
A   29
C23
A   30
C24
A   31
C25
A   32
O2
A   33
N6
M  END
>  <Id>  (34) 
4H3I_10V_B_503

>  <ChainId>  (34) 
B

>  <AsymId>  (34) 
G

>  <SeqNum>  (34) 
503

>  <Name>  (34) 
3-{5-[(2E,4aR,7aR)-2-imino-6-(3-methoxypyridin-2-yl)-3-methyl-4-oxooctahydro-7aH-pyrrolo[3,4-d]pyrimidin-7a-yl]thiophen-3-yl}benzonitrile

>  <SystematicName>  (34) 
3-[5-[(4aR,7aR)-2-azanylidene-6-(3-methoxypyridin-2-yl)-3-methyl-4-oxidanylidene-1,4a,5,7-tetrahydropyrrolo[3,4-d]pyrimidin-7a-yl]thiophen-3-yl]benzenecarbonitrile

>  <Synonyms>  (34) 


>  <Type>  (34) 
NON-POLYMER

>  <Formula>  (34) 
C24 H22 N6 O2 S

>  <ObservedFormula>  (34) 
C24 S N6 O2

>  <MolecularWeight>  (34) 
458.535

>  <ModifiedDate>  (34) 
2012-11-02

>  <Parent>  (34) 


>  <OneLetterCode>  (34) 


>  <SubcomponentList>  (34) 


>  <AmbiguousFlag>  (34) 
N

>  <InsertionCode>  (34) 


>  <InstanceId>  (34) 
4H3I_10V_B_503

>  <ChemCompId>  (34) 
10V

>  <PdbId>  (34) 
4H3I

>  <ResidueNumber>  (34) 
503

>  <InChI>  (34) 
InChI=1S/C24H22N6O2S/c1-29-22(31)18-12-30(21-19(32-2)7-4-8-27-21)14-24(18,28-23(29)26)20-10-17(13-33-20)16-6-3-5-15(9-16)11-25/h3-10,13,18H,12,14H2,1-2H3,(H2,26,28)/t18-,24-/m0/s1

>  <InChIKey>  (34) 
OVZBZLASXPSCEA-UUOWRZLLSA-N

>  <SMILES>  (34) 
[H]/N=C/1\N[C@]2(CN(C[C@H]2C(=O)N1C)c3c(cccn3)OC)c4cc(cs4)c5cccc(c5)C#N

>  <MissingHeavyAtoms>  (34) 
0

>  <Model>  (34) 
1

>  <AltIds>  (34) 


>  <pKI>  (34) 
8.52

>  <ChemblID>  (34) 
CHEMBL2178712

>  <standardized_canonical_smiles>  (34) 
COc1cccnc1N1C[C@H]2C(=O)N(C)C(N)=N[C@@]2(c2cc(-c3cccc(C#N)c3)cs2)C1

$$$$
4H1E_10J_B_501
     RDKit          3D

 33 37  0  0  0  0  0  0  0  0999 V2000
   21.7620   34.8340   56.6200 C   0  0  0  0  0  0  0  0  0  0  0  0
   22.3410   33.5050   57.2060 C   0  0  0  0  0  0  0  0  0  0  0  0
   20.6310   33.8140   59.0570 N   0  0  0  0  0  0  0  0  0  0  0  0
   20.7240   35.2110   58.8900 C   0  0  0  0  0  0  0  0  0  0  0  0
   21.4080   32.9050   58.2720 C   0  0  0  0  0  0  0  0  0  0  0  0
   21.4080   35.6970   57.7730 N   0  0  0  0  0  0  0  0  0  0  0  0
   24.1470   34.9300   56.6830 N   0  0  0  0  0  0  0  0  0  0  0  0
   20.6250   34.5480   55.6720 C   0  0  0  0  0  0  0  0  0  0  0  0
   23.0080   35.5050   55.9420 C   0  0  0  0  0  0  0  0  0  0  0  0
   25.4360   35.4020   56.4580 C   0  0  0  0  0  0  0  0  0  0  0  0
   23.7050   33.9640   57.7300 C   0  0  0  0  0  0  0  0  0  0  0  0
   19.2950   34.7330   55.8800 C   0  0  0  0  0  0  0  0  0  0  0  0
   18.4540   34.3930   54.8110 C   0  0  0  0  0  0  0  0  0  0  0  0
   20.8330   33.9780   54.0840 S   0  0  0  0  0  0  0  0  0  0  0  0
   19.1940   33.9360   53.7310 C   0  0  0  0  0  0  0  0  0  0  0  0
   14.9120   35.0080   55.9860 C   0  0  0  0  0  0  0  0  0  0  0  0
   26.4620   35.1160   57.4920 C   0  0  0  0  0  0  0  0  0  0  0  0
   17.0000   34.4850   54.8160 C   0  0  0  0  0  0  0  0  0  0  0  0
   13.7550   35.8760   58.1160 N   0  0  0  0  0  0  0  0  0  0  0  0
   14.2680   35.4900   57.1700 C   0  0  0  0  0  0  0  0  0  0  0  0
   20.2260   36.0520   59.7320 N   0  0  0  0  0  0  0  0  0  0  0  0
   16.3350   34.9180   55.9800 C   0  0  0  0  0  0  0  0  0  0  0  0
   21.3770   31.6910   58.3880 O   0  0  0  0  0  0  0  0  0  0  0  0
   14.1450   34.6700   54.8500 C   0  0  0  0  0  0  0  0  0  0  0  0
   25.7800   35.9730   55.4360 O   0  0  0  0  0  0  0  0  0  0  0  0
   27.5650   34.2750   57.0920 C   0  0  0  0  0  0  0  0  0  0  0  0
   16.2130   34.1350   53.6730 C   0  0  0  0  0  0  0  0  0  0  0  0
   14.8150   34.2120   53.6970 C   0  0  0  0  0  0  0  0  0  0  0  0
   19.7200   33.2200   60.0770 C   0  0  0  0  0  0  0  0  0  0  0  0
   28.5350   34.0040   58.0670 C   0  0  0  0  0  0  0  0  0  0  0  0
   26.3350   35.6180   58.8260 C   0  0  0  0  0  0  0  0  0  0  0  0
   27.3030   35.3100   59.8210 C   0  0  0  0  0  0  0  0  0  0  0  0
   28.3860   34.5050   59.4350 C   0  0  0  0  0  0  0  0  0  0  0  0
  2  1  1  0
  6  1  1  0
  8  1  1  0
  9  1  1  0
  5  2  1  0
 11  2  1  0
  4  3  1  0
  5  3  1  0
 29  3  1  0
  6  4  1  0
 21  4  2  0
 23  5  2  0
  9  7  1  0
 10  7  1  0
 11  7  1  0
 12  8  2  0
 14  8  1  0
 17 10  1  0
 25 10  2  0
 13 12  1  0
 15 13  2  0
 18 13  1  0
 15 14  1  0
 20 16  1  0
 22 16  2  0
 24 16  1  0
 26 17  2  0
 31 17  1  0
 22 18  1  0
 27 18  2  0
 20 19  3  0
 28 24  2  0
 30 26  1  0
 28 27  1  0
 33 30  2  0
 32 31  2  0
 33 32  1  0
A    1
C1
A    2
C2
A    3
N3
A    4
C4
A    5
C5
A    6
N6
A    7
N7
A    8
C8
A    9
C9
A   10
C10
A   11
C11
A   12
C12
A   13
C13
A   14
S14
A   15
C15
A   16
C16
A   17
C17
A   18
C18
A   19
N19
A   20
C20
A   21
N21
A   22
C22
A   23
O23
A   24
C24
A   25
O25
A   26
C26
A   27
C27
A   28
C28
A   29
C29
A   30
C30
A   31
C31
A   32
C32
A   33
C33
M  END
>  <Id>  (35) 
4H1E_10J_B_501

>  <ChainId>  (35) 
B

>  <AsymId>  (35) 
D

>  <SeqNum>  (35) 
501

>  <Name>  (35) 
3-{5-[(2E,4aR,7aR)-6-benzoyl-2-imino-3-methyl-4-oxooctahydro-7aH-pyrrolo[3,4-d]pyrimidin-7a-yl]thiophen-3-yl}benzonitrile

>  <SystematicName>  (35) 
3-[5-[(4aR,7aR)-2-azanylidene-3-methyl-4-oxidanylidene-6-(phenylcarbonyl)-1,4a,5,7-tetrahydropyrrolo[3,4-d]pyrimidin-7a-yl]thiophen-3-yl]benzenecarbonitrile

>  <Synonyms>  (35) 


>  <Type>  (35) 
NON-POLYMER

>  <Formula>  (35) 
C25 H21 N5 O2 S

>  <ObservedFormula>  (35) 
C25 S N5 O2

>  <MolecularWeight>  (35) 
455.532

>  <ModifiedDate>  (35) 
2012-10-12

>  <Parent>  (35) 


>  <OneLetterCode>  (35) 


>  <SubcomponentList>  (35) 


>  <AmbiguousFlag>  (35) 
N

>  <InsertionCode>  (35) 


>  <InstanceId>  (35) 
4H1E_10J_B_501

>  <ChemCompId>  (35) 
10J

>  <PdbId>  (35) 
4H1E

>  <ResidueNumber>  (35) 
501

>  <InChI>  (35) 
InChI=1S/C25H21N5O2S/c1-29-23(32)20-13-30(22(31)17-7-3-2-4-8-17)15-25(20,28-24(29)27)21-11-19(14-33-21)18-9-5-6-16(10-18)12-26/h2-11,14,20H,13,15H2,1H3,(H2,27,28)/t20-,25-/m0/s1

>  <InChIKey>  (35) 
POOXGNGZUXTIQE-CPJSRVTESA-N

>  <SMILES>  (35) 
[H]/N=C/1\N[C@]2(CN(C[C@H]2C(=O)N1C)C(=O)c3ccccc3)c4cc(cs4)c5cccc(c5)C#N

>  <MissingHeavyAtoms>  (35) 
0

>  <Model>  (35) 
1

>  <AltIds>  (35) 


>  <pKI>  (35) 
8.52

>  <ChemblID>  (35) 
CHEMBL2178145

>  <standardized_canonical_smiles>  (35) 
CN1C(=O)[C@@H]2CN(C(=O)c3ccccc3)C[C@]2(c2cc(-c3cccc(C#N)c3)cs2)N=C1N

$$$$
4H3J_10W_B_503
     RDKit          3D

 32 36  0  0  0  0  0  0  0  0999 V2000
   21.6490   33.0690   57.3260 C   0  0  0  0  0  0  0  0  0  0  0  0
   20.9970   33.9690   58.1560 N   0  0  0  0  0  0  0  0  0  0  0  0
   21.0260   35.3370   57.9680 C   0  0  0  0  0  0  0  0  0  0  0  0
   21.5480   35.8670   56.8080 N   0  0  0  0  0  0  0  0  0  0  0  0
   20.5500   36.1450   58.8870 N   0  0  0  0  0  0  0  0  0  0  0  0
   20.2440   33.3650   59.2840 C   0  0  0  0  0  0  0  0  0  0  0  0
   21.6320   31.8560   57.5020 O   0  0  0  0  0  0  0  0  0  0  0  0
   22.4320   33.6780   56.1370 C   0  0  0  0  0  0  0  0  0  0  0  0
   21.8710   35.0560   55.6350 C   0  0  0  0  0  0  0  0  0  0  0  0
   23.0650   35.6480   54.9060 C   0  0  0  0  0  0  0  0  0  0  0  0
   24.2050   35.0740   55.6320 N   0  0  0  0  0  0  0  0  0  0  0  0
   23.8720   33.9450   56.5020 C   0  0  0  0  0  0  0  0  0  0  0  0
   20.6560   34.7520   54.8400 C   0  0  0  0  0  0  0  0  0  0  0  0
   20.5710   34.2080   53.5000 C   0  0  0  0  0  0  0  0  0  0  0  0
   19.2530   34.0160   53.0600 C   0  0  0  0  0  0  0  0  0  0  0  0
   18.2790   34.4140   54.0190 C   0  0  0  0  0  0  0  0  0  0  0  0
   19.0800   34.9900   55.4070 S   0  0  0  0  0  0  0  0  0  0  0  0
   16.8250   34.3040   53.9280 C   0  0  0  0  0  0  0  0  0  0  0  0
   16.0680   34.7610   55.0110 C   0  0  0  0  0  0  0  0  0  0  0  0
   14.6670   34.6470   55.0240 C   0  0  0  0  0  0  0  0  0  0  0  0
   14.0190   34.0430   53.9270 C   0  0  0  0  0  0  0  0  0  0  0  0
   14.7640   33.5570   52.8290 C   0  0  0  0  0  0  0  0  0  0  0  0
   16.1750   33.6820   52.8410 C   0  0  0  0  0  0  0  0  0  0  0  0
   13.9550   35.1550   56.1620 C   0  0  0  0  0  0  0  0  0  0  0  0
   13.4050   35.5730   57.0910 N   0  0  0  0  0  0  0  0  0  0  0  0
   12.7000   33.9110   53.8880 F   0  0  0  0  0  0  0  0  0  0  0  0
   25.5010   35.5690   55.5160 C   0  0  0  0  0  0  0  0  0  0  0  0
   25.8060   36.6110   54.5880 C   0  0  0  0  0  0  0  0  0  0  0  0
   27.1290   37.1070   54.4790 C   0  0  0  0  0  0  0  0  0  0  0  0
   28.1570   36.5770   55.2860 C   0  0  0  0  0  0  0  0  0  0  0  0
   27.8730   35.5510   56.2080 C   0  0  0  0  0  0  0  0  0  0  0  0
   26.5620   35.0490   56.3210 C   0  0  0  0  0  0  0  0  0  0  0  0
  2  1  1  0
  7  1  2  0
  8  1  1  0
  3  2  1  0
  6  2  1  0
  4  3  1  0
  5  3  2  0
  9  4  1  0
  9  8  1  0
 12  8  1  0
 10  9  1  0
 13  9  1  0
 11 10  1  0
 12 11  1  0
 27 11  1  0
 14 13  2  0
 17 13  1  0
 15 14  1  0
 16 15  2  0
 17 16  1  0
 18 16  1  0
 19 18  2  0
 23 18  1  0
 20 19  1  0
 21 20  2  0
 24 20  1  0
 22 21  1  0
 26 21  1  0
 23 22  2  0
 25 24  3  0
 28 27  2  0
 32 27  1  0
 29 28  1  0
 30 29  2  0
 31 30  1  0
 32 31  2  0
A    1
C1
A    2
N1
A    3
C2
A    4
N2
A    5
N3
A    6
C3
A    7
O1
A    8
C4
A    9
C5
A   10
C6
A   11
N4
A   12
C7
A   13
C8
A   14
C9
A   15
C10
A   16
C11
A   17
S1
A   18
C12
A   19
C13
A   20
C14
A   21
C15
A   22
C16
A   23
C17
A   24
C18
A   25
N5
A   26
F1
A   27
C19
A   28
C20
A   29
C21
A   30
C22
A   31
C23
A   32
C24
M  END
>  <Id>  (36) 
4H3J_10W_B_503

>  <ChainId>  (36) 
B

>  <AsymId>  (36) 
G

>  <SeqNum>  (36) 
503

>  <Name>  (36) 
2-fluoro-5-{5-[(2E,4aR,7aR)-2-imino-3-methyl-4-oxo-6-phenyloctahydro-7aH-pyrrolo[3,4-d]pyrimidin-7a-yl]thiophen-2-yl}benzonitrile

>  <SystematicName>  (36) 
5-[5-[(4aR,7aR)-2-azanylidene-3-methyl-4-oxidanylidene-6-phenyl-1,4a,5,7-tetrahydropyrrolo[3,4-d]pyrimidin-7a-yl]thiophen-2-yl]-2-fluoranyl-benzenecarbonitrile

>  <Synonyms>  (36) 


>  <Type>  (36) 
NON-POLYMER

>  <Formula>  (36) 
C24 H20 F N5 O S

>  <ObservedFormula>  (36) 
C24 S F N5 O

>  <MolecularWeight>  (36) 
445.512

>  <ModifiedDate>  (36) 
2012-10-12

>  <Parent>  (36) 


>  <OneLetterCode>  (36) 


>  <SubcomponentList>  (36) 


>  <AmbiguousFlag>  (36) 
N

>  <InsertionCode>  (36) 


>  <InstanceId>  (36) 
4H3J_10W_B_503

>  <ChemCompId>  (36) 
10W

>  <PdbId>  (36) 
4H3J

>  <ResidueNumber>  (36) 
503

>  <InChI>  (36) 
InChI=1S/C24H20FN5OS/c1-29-22(31)18-13-30(17-5-3-2-4-6-17)14-24(18,28-23(29)27)21-10-9-20(32-21)15-7-8-19(25)16(11-15)12-26/h2-11,18H,13-14H2,1H3,(H2,27,28)/t18-,24-/m0/s1

>  <InChIKey>  (36) 
DWVJKKOFIHHAKC-UUOWRZLLSA-N

>  <SMILES>  (36) 
[H]/N=C/1\N[C@]2(CN(C[C@H]2C(=O)N1C)c3ccccc3)c4ccc(s4)c5ccc(c(c5)C#N)F

>  <MissingHeavyAtoms>  (36) 
0

>  <Model>  (36) 
1

>  <AltIds>  (36) 


>  <pKI>  (36) 
7.05

>  <ChemblID>  (36) 
CHEMBL2178148

>  <standardized_canonical_smiles>  (36) 
CN1C(=O)[C@@H]2CN(c3ccccc3)C[C@]2(c2ccc(-c3ccc(F)c(C#N)c3)s2)N=C1N

$$$$
5HTZ_66J_B_501
     RDKit          3D

 26 28  0  0  0  0  0  0  0  0999 V2000
   16.9420   34.3480   55.1700 C   0  0  0  0  0  0  0  0  0  0  0  0
   21.0600   35.3710   59.0710 C   0  0  0  0  0  0  0  0  0  0  0  0
   22.8790   35.7390   55.8280 C   0  0  0  0  0  0  0  0  0  0  0  0
   20.3340   33.4070   60.5190 C   0  0  0  0  0  0  0  0  0  0  0  0
   19.2600   33.3770   54.6370 C   0  0  0  0  0  0  0  0  0  0  0  0
   18.3810   34.2310   55.2760 C   0  0  0  0  0  0  0  0  0  0  0  0
   14.0770   35.6380   57.1310 C   0  0  0  0  0  0  0  0  0  0  0  0
   20.6190   33.5020   55.0420 C   0  0  0  0  0  0  0  0  0  0  0  0
   12.6650   36.7890   59.0810 C   0  0  0  0  0  0  0  0  0  0  0  0
   22.0030   34.9080   56.7650 C   0  0  0  0  0  0  0  0  0  0  0  0
   16.2070   34.9800   56.1570 C   0  0  0  0  0  0  0  0  0  0  0  0
   14.2200   34.3600   55.0270 C   0  0  0  0  0  0  0  0  0  0  0  0
   16.2320   33.7520   54.1390 C   0  0  0  0  0  0  0  0  0  0  0  0
   20.7870   34.4520   56.0330 C   0  0  0  0  0  0  0  0  0  0  0  0
   22.8180   33.7320   57.2800 C   0  0  0  0  0  0  0  0  0  0  0  0
   14.8300   35.0040   56.0890 C   0  0  0  0  0  0  0  0  0  0  0  0
   14.8950   33.7370   54.0420 N   0  0  0  0  0  0  0  0  0  0  0  0
   21.9040   32.7660   58.4710 S   0  0  0  0  0  0  0  0  0  0  0  0
   21.0360   33.9700   59.3380 N   0  0  0  0  0  0  0  0  0  0  0  0
   21.7420   35.7650   57.9330 N   0  0  0  0  0  0  0  0  0  0  0  0
   20.4660   36.1800   59.8930 N   0  0  0  0  0  0  0  0  0  0  0  0
   22.8760   32.1660   59.3660 O   0  0  0  0  0  0  0  0  0  0  0  0
   20.9260   31.9630   57.7800 O   0  0  0  0  0  0  0  0  0  0  0  0
   19.2640   35.1660   56.4100 S   0  0  0  0  0  0  0  0  0  0  0  0
   21.8690   32.5380   54.3700 Cl  0  0  0  0  0  0  0  0  0  0  0  0
   13.4520   36.1600   58.0120 C   0  0  0  0  0  0  0  0  0  0  0  0
  6  1  1  0
 11  1  2  0
 13  1  1  0
 19  2  1  0
 20  2  1  0
 21  2  2  0
 10  3  1  0
 19  4  1  0
  6  5  2  0
  8  5  1  0
 24  6  1  0
 16  7  1  0
 26  7  3  0
 14  8  2  0
 25  8  1  0
 26  9  1  0
 14 10  1  0
 15 10  1  0
 20 10  1  0
 16 11  1  0
 16 12  2  0
 17 12  1  0
 17 13  2  0
 24 14  1  0
 18 15  1  0
 19 18  1  0
 22 18  2  0
 23 18  2  0
A    1
C1
A    2
C11
A    3
C14
A    4
C17
A    5
C21
A    6
C20
A    7
C24
A    8
C22
A    9
C26
A   10
C13
A   11
C2
A   12
C4
A   13
C6
A   14
C7
A   15
C8
A   16
C3
A   17
N5
A   18
S9
A   19
N10
A   20
N12
A   21
N15
A   22
O16
A   23
O18
A   24
S19
A   25
CL23
A   26
C25
M  END
>  <Id>  (37) 
5HTZ_66J_B_501

>  <ChainId>  (37) 
B

>  <AsymId>  (37) 
D

>  <SeqNum>  (37) 
501

>  <Name>  (37) 
(3E,5S)-5-{3-chloro-5-[5-(prop-1-yn-1-yl)pyridin-3-yl]thiophen-2-yl}-2,5-dimethyl-1,2,4-thiadiazinan-3-imine 1,1-dioxide

>  <SystematicName>  (37) 
(5~{S})-5-[3-chloranyl-5-(5-prop-1-ynylpyridin-3-yl)thiophen-2-yl]-2,5-dimethyl-1,1-bis(oxidanylidene)-1,2,4-thiadiazinan-3-imine

>  <Synonyms>  (37) 


>  <Type>  (37) 
NON-POLYMER

>  <Formula>  (37) 
C17 H17 Cl N4 O2 S2

>  <ObservedFormula>  (37) 
C17 S2 Cl N4 O2

>  <MolecularWeight>  (37) 
408.925

>  <ModifiedDate>  (37) 
2016-11-04

>  <Parent>  (37) 


>  <OneLetterCode>  (37) 


>  <SubcomponentList>  (37) 


>  <AmbiguousFlag>  (37) 
N

>  <InsertionCode>  (37) 


>  <InstanceId>  (37) 
5HTZ_66J_B_501

>  <ChemCompId>  (37) 
66J

>  <PdbId>  (37) 
5HTZ

>  <ResidueNumber>  (37) 
501

>  <InChI>  (37) 
InChI=1S/C17H17ClN4O2S2/c1-4-5-11-6-12(9-20-8-11)14-7-13(18)15(25-14)17(2)10-26(23,24)22(3)16(19)21-17/h6-9H,10H2,1-3H3,(H2,19,21)/t17-/m0/s1

>  <InChIKey>  (37) 
VKVMIZCLMUKTTA-KRWDZBQOSA-N

>  <SMILES>  (37) 
[H]/N=C/1\N[C@](CS(=O)(=O)N1C)(C)c2c(cc(s2)c3cc(cnc3)C#CC)Cl

>  <MissingHeavyAtoms>  (37) 
0

>  <Model>  (37) 
1

>  <AltIds>  (37) 


>  <pKI>  (37) 
8.62

>  <ChemblID>  (37) 
CHEMBL3259832

>  <standardized_canonical_smiles>  (37) 
CC#Cc1cncc(-c2cc(Cl)c([C@]3(C)CS(=O)(=O)N(C)C(N)=N3)s2)c1

$$$$
3L5E_BDW_B_455
     RDKit          3D

 39 43  0  0  0  0  0  0  0  0999 V2000
   22.9410   34.6450   56.3070 C   0  0  0  0  0  0  0  0  0  0  0  0
   22.2540   35.7540   56.9690 N   0  0  0  0  0  0  0  0  0  0  0  0
   23.0130   32.3160   57.0680 O   0  0  0  0  0  0  0  0  0  0  0  0
   21.6630   35.2530   58.0790 C   0  0  0  0  0  0  0  0  0  0  0  0
   21.8730   33.9290   58.2510 N   0  0  0  0  0  0  0  0  0  0  0  0
   14.7940   30.9100   58.9020 O   0  0  0  0  0  0  0  0  0  0  0  0
   22.6290   33.4690   57.2350 C   0  0  0  0  0  0  0  0  0  0  0  0
   20.9360   35.9910   58.9300 N   0  0  0  0  0  0  0  0  0  0  0  0
   22.3760   34.4040   54.8850 C   0  0  0  0  0  0  0  0  0  0  0  0
   15.8420   30.4130   56.9610 N   0  0  0  0  0  0  0  0  0  0  0  0
   24.4610   34.8730   56.2500 C   0  0  0  0  0  0  0  0  0  0  0  0
   14.0190   31.6420   56.8970 N   0  0  0  0  0  0  0  0  0  0  0  0
   20.8640   34.1110   54.8250 C   0  0  0  0  0  0  0  0  0  0  0  0
   21.3690   33.0920   59.3440 C   0  0  0  0  0  0  0  0  0  0  0  0
   20.2440   32.1970   58.8740 C   0  0  0  0  0  0  0  0  0  0  0  0
   20.3370   30.7800   59.0220 C   0  0  0  0  0  0  0  0  0  0  0  0
   19.2650   29.9410   58.5780 C   0  0  0  0  0  0  0  0  0  0  0  0
   18.1000   30.5190   57.9880 C   0  0  0  0  0  0  0  0  0  0  0  0
   18.0210   31.9410   57.8450 C   0  0  0  0  0  0  0  0  0  0  0  0
   19.0850   32.7730   58.2880 C   0  0  0  0  0  0  0  0  0  0  0  0
   20.1330   35.2090   54.0470 C   0  0  0  0  0  0  0  0  0  0  0  0
   18.6730   34.8890   53.7290 C   0  0  0  0  0  0  0  0  0  0  0  0
   18.5450   33.5840   52.9730 C   0  0  0  0  0  0  0  0  0  0  0  0
   19.1730   32.4480   53.7840 C   0  0  0  0  0  0  0  0  0  0  0  0
   20.6210   32.7440   54.1730 C   0  0  0  0  0  0  0  0  0  0  0  0
   25.0690   35.0130   57.6250 C   0  0  0  0  0  0  0  0  0  0  0  0
   16.9500   29.6220   57.5090 C   0  0  0  0  0  0  0  0  0  0  0  0
   15.7470   30.6320   55.5320 C   0  0  0  0  0  0  0  0  0  0  0  0
   14.4790   31.5130   55.4960 C   0  0  0  0  0  0  0  0  0  0  0  0
   14.8730   30.9840   57.6830 C   0  0  0  0  0  0  0  0  0  0  0  0
   14.9110   32.8930   54.9850 C   0  0  0  0  0  0  0  0  0  0  0  0
   14.0050   34.0490   55.2900 C   0  0  0  0  0  0  0  0  0  0  0  0
   14.7000   35.3740   54.9950 C   0  0  0  0  0  0  0  0  0  0  0  0
   26.5100   35.5170   57.6120 C   0  0  0  0  0  0  0  0  0  0  0  0
   27.0050   35.7300   59.0460 C   0  0  0  0  0  0  0  0  0  0  0  0
   28.4940   36.0310   59.1700 C   0  0  0  0  0  0  0  0  0  0  0  0
   29.3560   35.0210   58.4080 C   0  0  0  0  0  0  0  0  0  0  0  0
   28.8970   34.8550   56.9550 C   0  0  0  0  0  0  0  0  0  0  0  0
   27.4020   34.5530   56.8380 C   0  0  0  0  0  0  0  0  0  0  0  0
  2  1  1  0
  7  1  1  0
  9  1  1  0
 11  1  1  0
  4  2  1  0
  7  3  2  0
  5  4  1  0
  8  4  2  0
  7  5  1  0
 14  5  1  0
 30  6  2  0
 13  9  1  0
 27 10  1  0
 28 10  1  0
 30 10  1  0
 26 11  1  0
 29 12  1  0
 30 12  1  0
 21 13  1  0
 25 13  1  0
 15 14  1  0
 16 15  2  0
 20 15  1  0
 17 16  1  0
 18 17  2  0
 19 18  1  0
 27 18  1  0
 20 19  2  0
 22 21  1  0
 23 22  1  0
 24 23  1  0
 25 24  1  0
 34 26  1  0
 29 28  1  0
 31 29  1  0
 32 31  1  0
 33 32  1  0
 35 34  1  0
 39 34  1  0
 36 35  1  0
 37 36  1  0
 38 37  1  0
 39 38  1  0
A    1
C1
A    2
N1
A    3
O1
A    4
C2
A    5
N2
A    6
O2
A    7
C3
A    8
N3
A    9
C4
A   10
N4
A   11
C5
A   12
N5
A   13
C6
A   14
C7
A   15
C8
A   16
C9
A   17
C10
A   18
C11
A   19
C12
A   20
C13
A   21
C14
A   22
C15
A   23
C16
A   24
C17
A   25
C18
A   26
C19
A   27
C22
A   28
C23
A   29
C24
A   30
C25
A   31
C26
A   32
C27
A   33
C28
A   34
C29
A   35
C30
A   36
C31
A   37
C32
A   38
C33
A   39
C34
M  END
>  <Id>  (38) 
3L5E_BDW_B_455

>  <ChainId>  (38) 
B

>  <AsymId>  (38) 
G

>  <SeqNum>  (38) 
455

>  <Name>  (38) 
(4S)-1-(4-{[(2Z,4R)-4-(2-cyclohexylethyl)-4-(cyclohexylmethyl)-2-imino-5-oxoimidazolidin-1-yl]methyl}benzyl)-4-propylimidazolidin-2-one

>  <SystematicName>  (38) 
(5R)-5-(2-cyclohexylethyl)-5-(cyclohexylmethyl)-2-imino-3-[[4-[[(4S)-2-oxo-4-propyl-imidazolidin-1-yl]methyl]phenyl]methyl]imidazolidin-4-one

>  <Synonyms>  (38) 


>  <Type>  (38) 
NON-POLYMER

>  <Formula>  (38) 
C32 H49 N5 O2

>  <ObservedFormula>  (38) 
C32 N5 O2

>  <MolecularWeight>  (38) 
535.764

>  <ModifiedDate>  (38) 
2011-06-04

>  <Parent>  (38) 


>  <OneLetterCode>  (38) 


>  <SubcomponentList>  (38) 


>  <AmbiguousFlag>  (38) 
N

>  <InsertionCode>  (38) 


>  <InstanceId>  (38) 
3L5E_BDW_B_455

>  <ChemCompId>  (38) 
BDW

>  <PdbId>  (38) 
3L5E

>  <ResidueNumber>  (38) 
455

>  <InChI>  (38) 
InChI=1S/C32H49N5O2/c1-2-9-28-23-36(31(39)34-28)21-26-14-16-27(17-15-26)22-37-29(38)32(35-30(37)33,20-25-12-7-4-8-13-25)19-18-24-10-5-3-6-11-24/h14-17,24-25,28H,2-13,18-23H2,1H3,(H2,33,35)(H,34,39)/t28-,32+/m0/s1

>  <InChIKey>  (38) 
SILGEXOUELDSRZ-GMCHKSTQSA-N

>  <SMILES>  (38) 
[H]/N=C\1/N[C@](C(=O)N1Cc2ccc(cc2)CN3C[C@@H](NC3=O)CCC)(CCC4CCCCC4)CC5CCCCC5

>  <MissingHeavyAtoms>  (38) 
0

>  <Model>  (38) 
1

>  <AltIds>  (38) 


>  <pKI>  (38) 
7.57

>  <ChemblID>  (38) 
CHEMBL1231280

>  <standardized_canonical_smiles>  (38) 
CCC[C@H]1CN(Cc2ccc(CN3C(=O)[C@@](CCC4CCCCC4)(CC4CCCCC4)N=C3N)cc2)C(=O)N1

$$$$
4R91_3KT_B_502
     RDKit          3D

 29 32  0  0  0  0  0  0  0  0999 V2000
   18.2800   34.3320   54.6300 C   0  0  0  0  0  0  0  0  0  0  0  0
   20.7430   34.8240   54.5120 C   0  0  0  0  0  0  0  0  0  0  0  0
   22.0520   33.5660   57.3250 C   0  0  0  0  0  0  0  0  0  0  0  0
   21.1820   35.4840   58.1550 C   0  0  0  0  0  0  0  0  0  0  0  0
   22.5260   34.6900   56.4350 C   0  0  0  0  0  0  0  0  0  0  0  0
   22.1480   34.4490   54.9660 C   0  0  0  0  0  0  0  0  0  0  0  0
   21.3200   34.1400   58.3380 N   0  0  0  0  0  0  0  0  0  0  0  0
   24.0450   34.7890   56.5060 C   0  0  0  0  0  0  0  0  0  0  0  0
   20.6780   33.3390   59.3780 C   0  0  0  0  0  0  0  0  0  0  0  0
   20.5150   36.2620   58.9440 N   0  0  0  0  0  0  0  0  0  0  0  0
   21.8780   35.8440   57.0420 N   0  0  0  0  0  0  0  0  0  0  0  0
   22.3460   32.3950   57.1920 O   0  0  0  0  0  0  0  0  0  0  0  0
   17.2420   33.6340   55.4570 N   0  0  0  0  0  0  0  0  0  0  0  0
   19.6510   34.0360   55.2230 C   0  0  0  0  0  0  0  0  0  0  0  0
   24.6730   34.7770   57.9050 C   0  0  0  0  0  0  0  0  0  0  0  0
   15.8430   33.6970   54.9320 C   0  0  0  0  0  0  0  0  0  0  0  0
   26.1240   35.2470   57.9160 C   0  0  0  0  0  0  0  0  0  0  0  0
   19.2820   34.7490   52.4260 C   0  0  0  0  0  0  0  0  0  0  0  0
   18.2500   33.8930   53.1620 C   0  0  0  0  0  0  0  0  0  0  0  0
   20.6720   34.5230   53.0210 C   0  0  0  0  0  0  0  0  0  0  0  0
   15.3570   35.1240   54.8730 C   0  0  0  0  0  0  0  0  0  0  0  0
   14.9990   33.0020   55.9740 C   0  0  0  0  0  0  0  0  0  0  0  0
   27.0300   34.2310   57.2100 C   0  0  0  0  0  0  0  0  0  0  0  0
   26.5650   35.4170   59.3660 C   0  0  0  0  0  0  0  0  0  0  0  0
   28.0310   35.8280   59.4940 C   0  0  0  0  0  0  0  0  0  0  0  0
   13.9710   35.1470   55.4700 C   0  0  0  0  0  0  0  0  0  0  0  0
   13.7000   33.7570   55.9870 C   0  0  0  0  0  0  0  0  0  0  0  0
   28.4820   34.7070   57.3000 C   0  0  0  0  0  0  0  0  0  0  0  0
   28.9480   34.8690   58.7450 C   0  0  0  0  0  0  0  0  0  0  0  0
 13  1  1  0
 14  1  1  0
 19  1  1  0
  6  2  1  0
 14  2  1  0
 20  2  1  0
  5  3  1  0
  7  3  1  0
 12  3  2  0
  7  4  1  0
 10  4  2  0
 11  4  1  0
  6  5  1  0
  8  5  1  0
 11  5  1  0
  9  7  1  0
 15  8  1  0
 16 13  1  0
 17 15  1  0
 21 16  1  0
 22 16  1  0
 23 17  1  0
 24 17  1  0
 19 18  1  0
 20 18  1  0
 26 21  1  0
 27 22  1  0
 28 23  1  0
 25 24  1  0
 29 25  1  0
 27 26  1  0
 29 28  1  0
A    1
C12
A    2
C13
A    3
C3
A    4
C1
A    5
C4
A    6
C7
A    7
N2
A    8
C9
A    9
C11
A   10
N5
A   11
N6
A   12
O8
A   13
N10
A   14
C14
A   15
C15
A   16
C16
A   17
C17
A   18
C18
A   19
C19
A   20
C20
A   21
C21
A   22
C22
A   23
C23
A   24
C24
A   25
C25
A   26
C26
A   27
C27
A   28
C28
A   29
C29
M  END
>  <Id>  (39) 
4R91_3KT_B_502

>  <ChainId>  (39) 
B

>  <AsymId>  (39) 
F

>  <SeqNum>  (39) 
502

>  <Name>  (39) 
(2E,5R)-5-(2-cyclohexylethyl)-5-{[(1S,3R)-3-(cyclopentylamino)cyclohexyl]methyl}-2-imino-3-methylimidazolidin-4-one

>  <SystematicName>  (39) 
(5R)-2-azanylidene-5-(2-cyclohexylethyl)-5-[[(1S,3R)-3-(cyclopentylamino)cyclohexyl]methyl]-3-methyl-imidazolidin-4-one

>  <Synonyms>  (39) 


>  <Type>  (39) 
NON-POLYMER

>  <Formula>  (39) 
C24 H42 N4 O

>  <ObservedFormula>  (39) 
C24 N4 O

>  <MolecularWeight>  (39) 
402.616

>  <ModifiedDate>  (39) 
2014-10-31

>  <Parent>  (39) 


>  <OneLetterCode>  (39) 


>  <SubcomponentList>  (39) 


>  <AmbiguousFlag>  (39) 
N

>  <InsertionCode>  (39) 


>  <InstanceId>  (39) 
4R91_3KT_B_502

>  <ChemCompId>  (39) 
3KT

>  <PdbId>  (39) 
4R91

>  <ResidueNumber>  (39) 
502

>  <InChI>  (39) 
InChI=1S/C24H42N4O/c1-28-22(29)24(27-23(28)25,15-14-18-8-3-2-4-9-18)17-19-10-7-13-21(16-19)26-20-11-5-6-12-20/h18-21,26H,2-17H2,1H3,(H2,25,27)/t19-,21+,24+/m0/s1

>  <InChIKey>  (39) 
NOZCXTAZEGFFAQ-XZDHIHRUSA-N

>  <SMILES>  (39) 
[H]/N=C/1\N[C@](C(=O)N1C)(CCC2CCCCC2)C[C@H]3CCC[C@H](C3)NC4CCCC4

>  <MissingHeavyAtoms>  (39) 
0

>  <Model>  (39) 
1

>  <AltIds>  (39) 


>  <pKI>  (39) 
6.37

>  <ChemblID>  (39) 
CHEMBL3354250

>  <standardized_canonical_smiles>  (39) 
CN1C(=O)[C@@](CCC2CCCCC2)(C[C@H]2CCC[C@@H](NC3CCCC3)C2)N=C1N

$$$$
4R92_3KU_B_503
     RDKit          3D

 32 35  0  0  0  0  0  0  0  0999 V2000
   21.9720   33.5360   57.2650 C   0  0  0  0  0  0  0  0  0  0  0  0
   22.4020   34.6370   56.3220 C   0  0  0  0  0  0  0  0  0  0  0  0
   21.8330   35.8160   56.9440 N   0  0  0  0  0  0  0  0  0  0  0  0
   21.1710   35.4880   58.0970 C   0  0  0  0  0  0  0  0  0  0  0  0
   21.3000   34.1360   58.3100 N   0  0  0  0  0  0  0  0  0  0  0  0
   22.2640   32.3610   57.1140 O   0  0  0  0  0  0  0  0  0  0  0  0
   23.9310   34.7400   56.3000 C   0  0  0  0  0  0  0  0  0  0  0  0
   20.3750   34.3970   54.7280 C   0  0  0  0  0  0  0  0  0  0  0  0
   24.6030   34.8280   57.6810 C   0  0  0  0  0  0  0  0  0  0  0  0
   26.0610   35.3090   57.6710 C   0  0  0  0  0  0  0  0  0  0  0  0
   19.8650   33.2040   53.9140 C   0  0  0  0  0  0  0  0  0  0  0  0
   18.3470   33.3140   53.7250 C   0  0  0  0  0  0  0  0  0  0  0  0
   17.8930   34.6630   53.1600 C   0  0  0  0  0  0  0  0  0  0  0  0
   18.4200   35.7920   54.0280 C   0  0  0  0  0  0  0  0  0  0  0  0
   19.9510   35.7170   54.0900 C   0  0  0  0  0  0  0  0  0  0  0  0
   26.4750   35.5860   59.1060 C   0  0  0  0  0  0  0  0  0  0  0  0
   27.9360   36.0040   59.2520 C   0  0  0  0  0  0  0  0  0  0  0  0
   28.8800   34.9930   58.6130 C   0  0  0  0  0  0  0  0  0  0  0  0
   28.4650   34.7150   57.1670 C   0  0  0  0  0  0  0  0  0  0  0  0
   27.0020   34.2830   57.0540 C   0  0  0  0  0  0  0  0  0  0  0  0
   20.5560   36.2900   58.8930 N   0  0  0  0  0  0  0  0  0  0  0  0
   17.8100   32.2180   52.9630 N   0  0  0  0  0  0  0  0  0  0  0  0
   17.4560   31.0560   53.6120 C   0  0  0  0  0  0  0  0  0  0  0  0
   21.8900   34.3770   54.9050 C   0  0  0  0  0  0  0  0  0  0  0  0
   20.7070   33.3920   59.4030 C   0  0  0  0  0  0  0  0  0  0  0  0
   17.5020   30.9090   54.8320 O   0  0  0  0  0  0  0  0  0  0  0  0
   16.9680   29.9740   52.7340 C   0  0  0  0  0  0  0  0  0  0  0  0
   16.6840   30.2050   51.4000 C   0  0  0  0  0  0  0  0  0  0  0  0
   16.2210   29.1400   50.6500 C   0  0  0  0  0  0  0  0  0  0  0  0
   16.7550   28.7170   53.2760 C   0  0  0  0  0  0  0  0  0  0  0  0
   16.2780   27.7300   52.4410 C   0  0  0  0  0  0  0  0  0  0  0  0
   16.0020   27.9090   51.1440 N   0  0  0  0  0  0  0  0  0  0  0  0
  2  1  1  0
  5  1  1  0
  6  1  2  0
  3  2  1  0
  7  2  1  0
 24  2  1  0
  4  3  1  0
  5  4  1  0
 21  4  2  0
 25  5  1  0
  9  7  1  0
 11  8  1  0
 15  8  1  0
 24  8  1  0
 10  9  1  0
 16 10  1  0
 20 10  1  0
 12 11  1  0
 13 12  1  0
 22 12  1  0
 14 13  1  0
 15 14  1  0
 17 16  1  0
 18 17  1  0
 19 18  1  0
 20 19  1  0
 23 22  1  0
 26 23  2  0
 27 23  1  0
 28 27  2  0
 30 27  1  0
 29 28  1  0
 32 29  2  0
 31 30  2  0
 32 31  1  0
A    1
C1
A    2
C2
A    3
N3
A    4
C4
A    5
N5
A    6
O6
A    7
C7
A    8
C8
A    9
C9
A   10
C10
A   11
C11
A   12
C12
A   13
C13
A   14
C14
A   15
C15
A   16
C16
A   17
C17
A   18
C18
A   19
C19
A   20
C20
A   21
N21
A   22
N22
A   23
C23
A   24
C24
A   25
C25
A   26
O26
A   27
C27
A   28
C28
A   29
C29
A   30
C30
A   31
C31
A   32
N32
M  END
>  <Id>  (40) 
4R92_3KU_B_503

>  <ChainId>  (40) 
B

>  <AsymId>  (40) 
F

>  <SeqNum>  (40) 
503

>  <Name>  (40) 
N-[(1R,3S)-3-{[(2E,4R)-4-(2-cyclohexylethyl)-2-imino-1-methyl-5-oxoimidazolidin-4-yl]methyl}cyclohexyl]pyridine-4-carboxamide

>  <SystematicName>  (40) 
N-[(1R,3S)-3-[[(4R)-2-azanylidene-4-(2-cyclohexylethyl)-1-methyl-5-oxidanylidene-imidazolidin-4-yl]methyl]cyclohexyl]pyridine-4-carboxamide

>  <Synonyms>  (40) 


>  <Type>  (40) 
NON-POLYMER

>  <Formula>  (40) 
C25 H37 N5 O2

>  <ObservedFormula>  (40) 
C25 N5 O2

>  <MolecularWeight>  (40) 
439.594

>  <ModifiedDate>  (40) 
2014-10-31

>  <Parent>  (40) 


>  <OneLetterCode>  (40) 


>  <SubcomponentList>  (40) 


>  <AmbiguousFlag>  (40) 
N

>  <InsertionCode>  (40) 


>  <InstanceId>  (40) 
4R92_3KU_B_503

>  <ChemCompId>  (40) 
3KU

>  <PdbId>  (40) 
4R92

>  <ResidueNumber>  (40) 
503

>  <InChI>  (40) 
InChI=1S/C25H37N5O2/c1-30-23(32)25(29-24(30)26,13-10-18-6-3-2-4-7-18)17-19-8-5-9-21(16-19)28-22(31)20-11-14-27-15-12-20/h11-12,14-15,18-19,21H,2-10,13,16-17H2,1H3,(H2,26,29)(H,28,31)/t19-,21+,25+/m0/s1

>  <InChIKey>  (40) 
NAGJGYNUXJYJOV-PIBDYAPNSA-N

>  <SMILES>  (40) 
[H]/N=C/1\N[C@](C(=O)N1C)(CCC2CCCCC2)C[C@H]3CCC[C@H](C3)NC(=O)c4ccncc4

>  <MissingHeavyAtoms>  (40) 
0

>  <Model>  (40) 
1

>  <AltIds>  (40) 


>  <pKI>  (40) 
7.41

>  <ChemblID>  (40) 
CHEMBL3354253

>  <standardized_canonical_smiles>  (40) 
CN1C(=O)[C@@](CCC2CCCCC2)(C[C@H]2CCC[C@@H](NC(=O)c3ccncc3)C2)N=C1N

$$$$
4R93_779_B_502
     RDKit          3D

 33 36  0  0  0  0  0  0  0  0999 V2000
   21.8820   33.4700   57.3740 C   0  0  0  0  0  0  0  0  0  0  0  0
   22.2770   34.5970   56.4460 C   0  0  0  0  0  0  0  0  0  0  0  0
   21.7540   35.7700   57.1400 N   0  0  0  0  0  0  0  0  0  0  0  0
   21.1080   35.4110   58.2900 C   0  0  0  0  0  0  0  0  0  0  0  0
   21.2200   34.0470   58.4450 N   0  0  0  0  0  0  0  0  0  0  0  0
   22.1700   32.2930   57.2040 O   0  0  0  0  0  0  0  0  0  0  0  0
   23.8010   34.7120   56.3780 C   0  0  0  0  0  0  0  0  0  0  0  0
   20.1910   34.3440   54.9020 C   0  0  0  0  0  0  0  0  0  0  0  0
   24.5170   34.7400   57.7440 C   0  0  0  0  0  0  0  0  0  0  0  0
   25.9740   35.2300   57.6880 C   0  0  0  0  0  0  0  0  0  0  0  0
   19.7700   33.3920   53.7900 C   0  0  0  0  0  0  0  0  0  0  0  0
   18.2400   33.3720   53.6400 C   0  0  0  0  0  0  0  0  0  0  0  0
   17.6610   34.7830   53.4820 C   0  0  0  0  0  0  0  0  0  0  0  0
   18.1020   35.6980   54.6180 C   0  0  0  0  0  0  0  0  0  0  0  0
   19.6290   35.7380   54.6530 C   0  0  0  0  0  0  0  0  0  0  0  0
   26.4310   35.4620   59.1240 C   0  0  0  0  0  0  0  0  0  0  0  0
   27.9020   35.8550   59.2240 C   0  0  0  0  0  0  0  0  0  0  0  0
   28.7900   34.7900   58.5930 C   0  0  0  0  0  0  0  0  0  0  0  0
   28.3510   34.5380   57.1580 C   0  0  0  0  0  0  0  0  0  0  0  0
   26.8700   34.1720   57.0480 C   0  0  0  0  0  0  0  0  0  0  0  0
   20.5270   36.2100   59.1220 N   0  0  0  0  0  0  0  0  0  0  0  0
   17.8250   32.5500   52.5280 N   0  0  0  0  0  0  0  0  0  0  0  0
   17.1870   31.3440   52.7510 C   0  0  0  0  0  0  0  0  0  0  0  0
   21.7090   34.4080   55.0280 C   0  0  0  0  0  0  0  0  0  0  0  0
   20.6030   33.2520   59.4900 C   0  0  0  0  0  0  0  0  0  0  0  0
   17.0160   30.8770   53.8760 O   0  0  0  0  0  0  0  0  0  0  0  0
   16.7870   30.7640   51.5660 N   0  0  0  0  0  0  0  0  0  0  0  0
   16.3050   29.4500   51.3730 C   0  0  0  0  0  0  0  0  0  0  0  0
   15.9350   29.1050   50.0880 C   0  0  0  0  0  0  0  0  0  0  0  0
   15.4300   27.8410   49.8270 C   0  0  0  0  0  0  0  0  0  0  0  0
   15.3240   26.9090   50.8420 C   0  0  0  0  0  0  0  0  0  0  0  0
   15.7010   27.2490   52.1260 C   0  0  0  0  0  0  0  0  0  0  0  0
   16.1780   28.5210   52.3950 C   0  0  0  0  0  0  0  0  0  0  0  0
  2  1  1  0
  5  1  1  0
  6  1  2  0
  3  2  1  0
  7  2  1  0
 24  2  1  0
  4  3  1  0
  5  4  1  0
 21  4  2  0
 25  5  1  0
  9  7  1  0
 11  8  1  0
 15  8  1  0
 24  8  1  0
 10  9  1  0
 16 10  1  0
 20 10  1  0
 12 11  1  0
 13 12  1  0
 22 12  1  0
 14 13  1  0
 15 14  1  0
 17 16  1  0
 18 17  1  0
 19 18  1  0
 20 19  1  0
 23 22  1  0
 26 23  2  0
 27 23  1  0
 28 27  1  0
 29 28  2  0
 33 28  1  0
 30 29  1  0
 31 30  2  0
 32 31  1  0
 33 32  2  0
A    1
C1
A    2
C2
A    3
N3
A    4
C4
A    5
N5
A    6
O6
A    7
C7
A    8
C8
A    9
C9
A   10
C10
A   11
C11
A   12
C12
A   13
C13
A   14
C14
A   15
C15
A   16
C16
A   17
C17
A   18
C18
A   19
C19
A   20
C20
A   21
N21
A   22
N22
A   23
C23
A   24
C24
A   25
C25
A   26
O26
A   27
N27
A   28
C28
A   29
C29
A   30
C30
A   31
C31
A   32
C32
A   33
C33
M  END
>  <Id>  (41) 
4R93_779_B_502

>  <ChainId>  (41) 
B

>  <AsymId>  (41) 
G

>  <SeqNum>  (41) 
502

>  <Name>  (41) 
1-[(1R,3S)-3-{[(2E,4R)-4-(2-cyclohexylethyl)-2-imino-1-methyl-5-oxoimidazolidin-4-yl]methyl}cyclohexyl]-3-phenylurea

>  <SystematicName>  (41) 
1-[(1R,3S)-3-[[(4R)-2-azanylidene-4-(2-cyclohexylethyl)-1-methyl-5-oxidanylidene-imidazolidin-4-yl]methyl]cyclohexyl]-3-phenyl-urea

>  <Synonyms>  (41) 


>  <Type>  (41) 
NON-POLYMER

>  <Formula>  (41) 
C26 H39 N5 O2

>  <ObservedFormula>  (41) 
C26 N5 O2

>  <MolecularWeight>  (41) 
453.62

>  <ModifiedDate>  (41) 
2014-10-31

>  <Parent>  (41) 


>  <OneLetterCode>  (41) 


>  <SubcomponentList>  (41) 


>  <AmbiguousFlag>  (41) 
N

>  <InsertionCode>  (41) 


>  <InstanceId>  (41) 
4R93_779_B_502

>  <ChemCompId>  (41) 
779

>  <PdbId>  (41) 
4R93

>  <ResidueNumber>  (41) 
502

>  <InChI>  (41) 
InChI=1S/C26H39N5O2/c1-31-23(32)26(30-24(31)27,16-15-19-9-4-2-5-10-19)18-20-11-8-14-22(17-20)29-25(33)28-21-12-6-3-7-13-21/h3,6-7,12-13,19-20,22H,2,4-5,8-11,14-18H2,1H3,(H2,27,30)(H2,28,29,33)/t20-,22+,26+/m0/s1

>  <InChIKey>  (41) 
CVMRAJSOLFSMNH-UNIVCBNLSA-N

>  <SMILES>  (41) 
[H]/N=C/1\N[C@](C(=O)N1C)(CCC2CCCCC2)C[C@H]3CCC[C@H](C3)NC(=O)Nc4ccccc4

>  <MissingHeavyAtoms>  (41) 
0

>  <Model>  (41) 
1

>  <AltIds>  (41) 


>  <pKI>  (41) 
7.8

>  <ChemblID>  (41) 
CHEMBL3354255

>  <standardized_canonical_smiles>  (41) 
CN1C(=O)[C@@](CCC2CCCCC2)(C[C@H]2CCC[C@@H](NC(=O)Nc3ccccc3)C2)N=C1N

$$$$
4R8Y_3KO_B_502
     RDKit          3D

 30 33  0  0  0  0  0  0  0  0999 V2000
   21.0510   35.4430   58.1530 C   0  0  0  0  0  0  0  0  0  0  0  0
   21.8060   33.5120   57.2250 C   0  0  0  0  0  0  0  0  0  0  0  0
   22.2300   34.6410   56.3100 C   0  0  0  0  0  0  0  0  0  0  0  0
   17.1810   32.6000   54.6700 C   0  0  0  0  0  0  0  0  0  0  0  0
   21.1280   34.0730   58.2800 N   0  0  0  0  0  0  0  0  0  0  0  0
   21.7050   34.4740   54.8670 C   0  0  0  0  0  0  0  0  0  0  0  0
   15.8980   32.8510   53.9310 C   0  0  0  0  0  0  0  0  0  0  0  0
   19.4000   33.5060   55.1920 C   0  0  0  0  0  0  0  0  0  0  0  0
   23.7510   34.7740   56.2640 C   0  0  0  0  0  0  0  0  0  0  0  0
   28.2500   34.3720   57.1240 C   0  0  0  0  0  0  0  0  0  0  0  0
   14.4350   35.6690   56.0420 C   0  0  0  0  0  0  0  0  0  0  0  0
   13.5810   34.4810   56.4460 C   0  0  0  0  0  0  0  0  0  0  0  0
   28.6550   34.6970   58.5590 C   0  0  0  0  0  0  0  0  0  0  0  0
   27.7440   35.7290   59.2140 C   0  0  0  0  0  0  0  0  0  0  0  0
   26.2850   35.3080   59.0930 C   0  0  0  0  0  0  0  0  0  0  0  0
   26.7660   34.0490   57.0020 C   0  0  0  0  0  0  0  0  0  0  0  0
   15.4790   35.1540   55.0770 C   0  0  0  0  0  0  0  0  0  0  0  0
   14.1010   33.2510   55.7270 C   0  0  0  0  0  0  0  0  0  0  0  0
   18.4630   34.1210   53.0750 C   0  0  0  0  0  0  0  0  0  0  0  0
   20.2150   34.6570   54.6450 C   0  0  0  0  0  0  0  0  0  0  0  0
   20.5960   33.2850   59.3820 C   0  0  0  0  0  0  0  0  0  0  0  0
   19.8580   34.6990   53.1700 C   0  0  0  0  0  0  0  0  0  0  0  0
   24.4330   34.6800   57.6410 C   0  0  0  0  0  0  0  0  0  0  0  0
   14.9480   33.8160   54.6170 C   0  0  0  0  0  0  0  0  0  0  0  0
   25.8870   35.1330   57.6230 C   0  0  0  0  0  0  0  0  0  0  0  0
   21.6570   35.7940   56.9730 N   0  0  0  0  0  0  0  0  0  0  0  0
   18.2480   33.4250   54.3300 N   0  0  0  0  0  0  0  0  0  0  0  0
   20.5320   36.2400   59.0380 N   0  0  0  0  0  0  0  0  0  0  0  0
   22.0560   32.3320   57.0490 O   0  0  0  0  0  0  0  0  0  0  0  0
   17.2320   31.7280   55.5260 O   0  0  0  0  0  0  0  0  0  0  0  0
  5  1  1  0
 26  1  1  0
 28  1  2  0
  3  2  1  0
  5  2  1  0
 29  2  2  0
  6  3  1  0
  9  3  1  0
 26  3  1  0
  7  4  1  0
 27  4  1  0
 30  4  2  0
 21  5  1  0
 20  6  1  0
 24  7  1  0
 20  8  1  0
 27  8  1  0
 23  9  1  0
 13 10  1  0
 16 10  1  0
 12 11  1  0
 17 11  1  0
 18 12  1  0
 14 13  1  0
 15 14  1  0
 25 15  1  0
 25 16  1  0
 24 17  1  0
 24 18  1  0
 22 19  1  0
 27 19  1  0
 22 20  1  0
 25 23  1  0
A    1
C2
A    2
C3
A    3
C4
A    4
C7
A    5
N1
A    6
C9
A    7
C13
A    8
C10
A    9
C12
A   10
C27
A   11
C28
A   12
C29
A   13
C30
A   14
C26
A   15
C25
A   16
C24
A   17
C23
A   18
C22
A   19
C14
A   20
C16
A   21
C17
A   22
C18
A   23
C19
A   24
C20
A   25
C21
A   26
N5
A   27
N6
A   28
N8
A   29
O11
A   30
O15
M  END
>  <Id>  (42) 
4R8Y_3KO_B_502

>  <ChainId>  (42) 
B

>  <AsymId>  (42) 
E

>  <SeqNum>  (42) 
502

>  <Name>  (42) 
(2E,5R)-5-(2-cyclohexylethyl)-5-{[(3R)-1-(cyclopentylacetyl)pyrrolidin-3-yl]methyl}-2-imino-3-methylimidazolidin-4-one

>  <SystematicName>  (42) 
(5R)-2-azanylidene-5-(2-cyclohexylethyl)-5-[[(3R)-1-(2-cyclopentylethanoyl)pyrrolidin-3-yl]methyl]-3-methyl-imidazolidin-4-one

>  <Synonyms>  (42) 


>  <Type>  (42) 
NON-POLYMER

>  <Formula>  (42) 
C24 H40 N4 O2

>  <ObservedFormula>  (42) 
C24 N4 O2

>  <MolecularWeight>  (42) 
416.6

>  <ModifiedDate>  (42) 
2014-10-31

>  <Parent>  (42) 


>  <OneLetterCode>  (42) 


>  <SubcomponentList>  (42) 


>  <AmbiguousFlag>  (42) 
N

>  <InsertionCode>  (42) 


>  <InstanceId>  (42) 
4R8Y_3KO_B_502

>  <ChemCompId>  (42) 
3KO

>  <PdbId>  (42) 
4R8Y

>  <ResidueNumber>  (42) 
502

>  <InChI>  (42) 
InChI=1S/C24H40N4O2/c1-27-22(30)24(26-23(27)25,13-11-18-7-3-2-4-8-18)16-20-12-14-28(17-20)21(29)15-19-9-5-6-10-19/h18-20H,2-17H2,1H3,(H2,25,26)/t20-,24-/m1/s1

>  <InChIKey>  (42) 
ZROUWOKUKKGJPH-HYBUGGRVSA-N

>  <SMILES>  (42) 
[H]/N=C/1\N[C@](C(=O)N1C)(CCC2CCCCC2)C[C@H]3CCN(C3)C(=O)CC4CCCC4

>  <MissingHeavyAtoms>  (42) 
0

>  <Model>  (42) 
1

>  <AltIds>  (42) 


>  <pKI>  (42) 
6.19

>  <ChemblID>  (42) 
CHEMBL3354247

>  <standardized_canonical_smiles>  (42) 
CN1C(=O)[C@@](CCC2CCCCC2)(C[C@H]2CCN(C(=O)CC3CCCC3)C2)N=C1N

$$$$
5HE4_60T_B_502
     RDKit          3D

 30 33  0  0  0  0  0  0  0  0999 V2000
   27.0060   35.7520   55.7870 C   0  0  0  0  0  0  0  0  0  0  0  0
   24.7730   35.5010   55.3340 C   0  0  0  0  0  0  0  0  0  0  0  0
   18.7490   36.0790   56.4230 F   0  0  0  0  0  0  0  0  0  0  0  0
   25.8860   37.1220   54.1780 C   0  0  0  0  0  0  0  0  0  0  0  0
   24.6370   38.6690   52.8590 C   0  0  0  0  0  0  0  0  0  0  0  0
   22.3700   35.3650   54.9620 C   0  0  0  0  0  0  0  0  0  0  0  0
   21.2760   34.7140   55.8230 C   0  0  0  0  0  0  0  0  0  0  0  0
   20.7960   35.0520   58.2440 C   0  0  0  0  0  0  0  0  0  0  0  0
   24.7490   36.4890   54.4050 N   0  0  0  0  0  0  0  0  0  0  0  0
   23.6000   34.8620   55.5700 N   0  0  0  0  0  0  0  0  0  0  0  0
   21.1960   35.5170   57.0510 N   0  0  0  0  0  0  0  0  0  0  0  0
   20.4450   35.8570   59.1950 N   0  0  0  0  0  0  0  0  0  0  0  0
   20.1480   33.1320   59.6580 C   0  0  0  0  0  0  0  0  0  0  0  0
   21.9050   33.3620   56.2770 C   0  0  0  0  0  0  0  0  0  0  0  0
   18.7250   35.1920   55.4030 C   0  0  0  0  0  0  0  0  0  0  0  0
   17.5380   34.9990   54.7380 C   0  0  0  0  0  0  0  0  0  0  0  0
   17.5260   34.1510   53.6390 C   0  0  0  0  0  0  0  0  0  0  0  0
   18.6900   33.5400   53.1950 C   0  0  0  0  0  0  0  0  0  0  0  0
   19.8540   33.7550   53.8970 C   0  0  0  0  0  0  0  0  0  0  0  0
   20.9770   33.1540   53.4780 F   0  0  0  0  0  0  0  0  0  0  0  0
   19.9560   34.5700   55.0420 C   0  0  0  0  0  0  0  0  0  0  0  0
   21.2940   32.7930   57.5420 C   0  0  0  0  0  0  0  0  0  0  0  0
   21.2820   31.5960   57.7440 O   0  0  0  0  0  0  0  0  0  0  0  0
   20.7180   33.6850   58.4240 N   0  0  0  0  0  0  0  0  0  0  0  0
   23.3980   33.7100   56.4670 C   0  0  0  0  0  0  0  0  0  0  0  0
   25.8500   35.1140   56.0520 N   0  0  0  0  0  0  0  0  0  0  0  0
   28.2000   35.3580   56.6070 C   0  0  0  0  0  0  0  0  0  0  0  0
   27.0660   36.7800   54.8190 C   0  0  0  0  0  0  0  0  0  0  0  0
   28.2110   37.3920   54.4740 F   0  0  0  0  0  0  0  0  0  0  0  0
   25.8880   38.2520   53.4300 O   0  0  0  0  0  0  0  0  0  0  0  0
 26  1  2  0
 27  1  1  0
 28  1  1  0
  9  2  2  0
 10  2  1  0
 26  2  1  0
 15  3  1  0
  9  4  1  0
 28  4  2  0
 30  4  1  0
 30  5  1  0
  7  6  1  0
 10  6  1  0
 11  7  1  0
 14  7  1  0
 21  7  1  0
 11  8  1  0
 12  8  2  0
 24  8  1  0
 25 10  1  0
 24 13  1  0
 22 14  1  0
 25 14  1  0
 16 15  2  0
 21 15  1  0
 17 16  1  0
 18 17  2  0
 19 18  1  0
 20 19  1  0
 21 19  2  0
 23 22  2  0
 24 22  1  0
 29 28  1  0
A    1
C1
A    2
C2
A    3
F2
A    4
C3
A    5
C4
A    6
C5
A    7
C6
A    8
C7
A    9
N1
A   10
N2
A   11
N3
A   12
N4
A   13
C8
A   14
C10
A   15
C17
A   16
C16
A   17
C15
A   18
C14
A   19
C13
A   20
F1
A   21
C12
A   22
C9
A   23
O1
A   24
N5
A   25
C11
A   26
N
A   27
C18
A   28
C
A   29
F
A   30
O
M  END
>  <Id>  (43) 
5HE4_60T_B_502

>  <ChainId>  (43) 
B

>  <AsymId>  (43) 
E

>  <SeqNum>  (43) 
502

>  <Name>  (43) 
(2E,4aR,7aS)-7a-(2,6-difluorophenyl)-6-(5-fluoro-4-methoxy-6-methylpyrimidin-2-yl)-2-imino-3-methyloctahydro-4H-pyrrolo[3,4-d]pyrimidin-4-one

>  <SystematicName>  (43) 
(4~{a}~{R},7~{a}~{S})-2-azanylidene-7~{a}-[2,6-bis(fluoranyl)phenyl]-6-(5-fluoranyl-4-methoxy-6-methyl-pyrimidin-2-yl)-3-methyl-1,4~{a},5,7-tetrahydropyrrolo[3,4-d]pyrimidin-4-one

>  <Synonyms>  (43) 


>  <Type>  (43) 
NON-POLYMER

>  <Formula>  (43) 
C19 H19 F3 N6 O2

>  <ObservedFormula>  (43) 
C19 F3 N6 O2

>  <MolecularWeight>  (43) 
420.388

>  <ModifiedDate>  (43) 
2016-03-11

>  <Parent>  (43) 


>  <OneLetterCode>  (43) 


>  <SubcomponentList>  (43) 


>  <AmbiguousFlag>  (43) 
N

>  <InsertionCode>  (43) 


>  <InstanceId>  (43) 
5HE4_60T_B_502

>  <ChemCompId>  (43) 
60T

>  <PdbId>  (43) 
5HE4

>  <ResidueNumber>  (43) 
502

>  <InChI>  (43) 
InChI=1S/C19H19F3N6O2/c1-9-14(22)15(30-3)25-18(24-9)28-7-10-16(29)27(2)17(23)26-19(10,8-28)13-11(20)5-4-6-12(13)21/h4-6,10H,7-8H2,1-3H3,(H2,23,26)/t10-,19-/m0/s1

>  <InChIKey>  (43) 
NAXGDHGFSCZYGN-OVWNDWIMSA-N

>  <SMILES>  (43) 
[H]/N=C/1\N[C@]2(CN(C[C@H]2C(=O)N1C)c3nc(c(c(n3)OC)F)C)c4c(cccc4F)F

>  <MissingHeavyAtoms>  (43) 
0

>  <Model>  (43) 
1

>  <AltIds>  (43) 


>  <pKI>  (43) 
7.6

>  <ChemblID>  (43) 
CHEMBL3640258

>  <standardized_canonical_smiles>  (43) 
COc1nc(N2C[C@H]3C(=O)N(C)C(N)=N[C@@]3(c3c(F)cccc3F)C2)nc(C)c1F

$$$$
5HE7_60X_B_501
     RDKit          3D

 30 33  0  0  0  0  0  0  0  0999 V2000
   28.1930   35.3220   56.6200 C   0  0  0  0  0  0  0  0  0  0  0  0
   19.8570   33.7900   53.9170 C   0  0  0  0  0  0  0  0  0  0  0  0
   18.6920   33.6090   53.2120 C   0  0  0  0  0  0  0  0  0  0  0  0
   23.5730   34.9190   55.6540 N   0  0  0  0  0  0  0  0  0  0  0  0
   17.5600   34.1890   53.7310 C   0  0  0  0  0  0  0  0  0  0  0  0
   23.3730   33.7630   56.5370 C   0  0  0  0  0  0  0  0  0  0  0  0
   19.9360   34.4990   55.1130 C   0  0  0  0  0  0  0  0  0  0  0  0
   18.7450   35.0580   55.5800 C   0  0  0  0  0  0  0  0  0  0  0  0
   17.5530   34.9210   54.8910 C   0  0  0  0  0  0  0  0  0  0  0  0
   21.2870   31.6120   57.7580 O   0  0  0  0  0  0  0  0  0  0  0  0
   24.7260   36.5240   54.4830 N   0  0  0  0  0  0  0  0  0  0  0  0
   21.9030   33.3880   56.3070 C   0  0  0  0  0  0  0  0  0  0  0  0
   20.7770   35.0680   58.2790 C   0  0  0  0  0  0  0  0  0  0  0  0
   20.1060   33.1340   59.6660 C   0  0  0  0  0  0  0  0  0  0  0  0
   21.3010   32.8120   57.5710 C   0  0  0  0  0  0  0  0  0  0  0  0
   21.2520   34.7300   55.8660 C   0  0  0  0  0  0  0  0  0  0  0  0
   24.6300   38.6670   52.9050 C   0  0  0  0  0  0  0  0  0  0  0  0
   25.8660   37.1390   54.2370 C   0  0  0  0  0  0  0  0  0  0  0  0
   24.7440   35.5500   55.4170 C   0  0  0  0  0  0  0  0  0  0  0  0
   26.9890   35.7600   55.8400 C   0  0  0  0  0  0  0  0  0  0  0  0
   22.3450   35.3550   54.9840 C   0  0  0  0  0  0  0  0  0  0  0  0
   20.9880   33.2510   53.4060 F   0  0  0  0  0  0  0  0  0  0  0  0
   16.3930   34.0110   53.0720 F   0  0  0  0  0  0  0  0  0  0  0  0
   20.7420   33.7000   58.4720 N   0  0  0  0  0  0  0  0  0  0  0  0
   20.4340   35.8650   59.2290 N   0  0  0  0  0  0  0  0  0  0  0  0
   21.0910   35.5630   57.0670 N   0  0  0  0  0  0  0  0  0  0  0  0
   25.8250   35.1410   56.1210 N   0  0  0  0  0  0  0  0  0  0  0  0
   27.0560   36.7820   54.8630 C   0  0  0  0  0  0  0  0  0  0  0  0
   28.2160   37.3430   54.4870 F   0  0  0  0  0  0  0  0  0  0  0  0
   25.8770   38.2460   53.4680 O   0  0  0  0  0  0  0  0  0  0  0  0
 20  1  1  0
  3  2  2  0
  7  2  1  0
 22  2  1  0
  5  3  1  0
  6  4  1  0
 19  4  1  0
 21  4  1  0
  9  5  2  0
 23  5  1  0
 12  6  1  0
  8  7  2  0
 16  7  1  0
  9  8  1  0
 15 10  2  0
 18 11  2  0
 19 11  1  0
 15 12  1  0
 16 12  1  0
 24 13  1  0
 25 13  2  0
 26 13  1  0
 24 14  1  0
 24 15  1  0
 21 16  1  0
 26 16  1  0
 30 17  1  0
 28 18  1  0
 30 18  1  0
 27 19  2  0
 27 20  1  0
 28 20  2  0
 29 28  1  0
A    1
C18
A    2
C17
A    3
C16
A    4
N2
A    5
C15
A    6
C11
A    7
C12
A    8
C13
A    9
C14
A   10
O1
A   11
N1
A   12
C10
A   13
C7
A   14
C8
A   15
C9
A   16
C6
A   17
C4
A   18
C3
A   19
C2
A   20
C1
A   21
C5
A   22
F2
A   23
F1
A   24
N5
A   25
N4
A   26
N3
A   27
N
A   28
C
A   29
F
A   30
O
M  END
>  <Id>  (44) 
5HE7_60X_B_501

>  <ChainId>  (44) 
B

>  <AsymId>  (44) 
D

>  <SeqNum>  (44) 
501

>  <Name>  (44) 
(2E,4aR,7aS)-7a-(2,4-difluorophenyl)-6-(5-fluoro-4-methoxy-6-methylpyrimidin-2-yl)-2-imino-3-methyloctahydro-4H-pyrrolo[3,4-d]pyrimidin-4-one

>  <SystematicName>  (44) 
(4~{a}~{R},7~{a}~{S})-2-azanylidene-7~{a}-[2,4-bis(fluoranyl)phenyl]-6-(5-fluoranyl-4-methoxy-6-methyl-pyrimidin-2-yl)-3-methyl-1,4~{a},5,7-tetrahydropyrrolo[3,4-d]pyrimidin-4-one

>  <Synonyms>  (44) 


>  <Type>  (44) 
NON-POLYMER

>  <Formula>  (44) 
C19 H19 F3 N6 O2

>  <ObservedFormula>  (44) 
C19 F3 N6 O2

>  <MolecularWeight>  (44) 
420.388

>  <ModifiedDate>  (44) 
2016-03-11

>  <Parent>  (44) 


>  <OneLetterCode>  (44) 


>  <SubcomponentList>  (44) 


>  <AmbiguousFlag>  (44) 
N

>  <InsertionCode>  (44) 


>  <InstanceId>  (44) 
5HE7_60X_B_501

>  <ChemCompId>  (44) 
60X

>  <PdbId>  (44) 
5HE7

>  <ResidueNumber>  (44) 
501

>  <InChI>  (44) 
InChI=1S/C19H19F3N6O2/c1-9-14(22)15(30-3)25-18(24-9)28-7-12-16(29)27(2)17(23)26-19(12,8-28)11-5-4-10(20)6-13(11)21/h4-6,12H,7-8H2,1-3H3,(H2,23,26)/t12-,19+/m0/s1

>  <InChIKey>  (44) 
FNMJFZYRSQTKIH-HXPMCKFVSA-N

>  <SMILES>  (44) 
[H]/N=C/1\N[C@]2(CN(C[C@H]2C(=O)N1C)c3nc(c(c(n3)OC)F)C)c4ccc(cc4F)F

>  <MissingHeavyAtoms>  (44) 
0

>  <Model>  (44) 
1

>  <AltIds>  (44) 


>  <pKI>  (44) 
8.32

>  <ChemblID>  (44) 
CHEMBL3640290

>  <standardized_canonical_smiles>  (44) 
COc1nc(N2C[C@H]3C(=O)N(C)C(N)=N[C@@]3(c3ccc(F)cc3F)C2)nc(C)c1F

$$$$
5HU1_66F_B_501
     RDKit          3D

 28 30  0  0  0  0  0  0  0  0999 V2000
   20.9900   34.8210   55.4250 C   0  0  0  0  0  0  0  0  0  0  0  0
   22.1640   35.2490   56.2840 C   0  0  0  0  0  0  0  0  0  0  0  0
   23.0610   36.1690   55.4440 C   0  0  0  0  0  0  0  0  0  0  0  0
   23.0310   34.1120   56.7470 C   0  0  0  0  0  0  0  0  0  0  0  0
   22.1580   33.0760   57.8870 S   0  0  0  0  0  0  0  0  0  0  0  0
   21.2930   34.2530   58.8040 N   0  0  0  0  0  0  0  0  0  0  0  0
   21.2980   35.6340   58.5120 C   0  0  0  0  0  0  0  0  0  0  0  0
   21.7610   36.1180   57.3990 N   0  0  0  0  0  0  0  0  0  0  0  0
   20.8140   36.4250   59.5210 N   0  0  0  0  0  0  0  0  0  0  0  0
   20.6790   33.6700   60.0240 C   0  0  0  0  0  0  0  0  0  0  0  0
   23.1330   32.4960   58.7890 O   0  0  0  0  0  0  0  0  0  0  0  0
   21.1690   32.3460   57.1370 O   0  0  0  0  0  0  0  0  0  0  0  0
   19.6870   35.1330   55.8080 C   0  0  0  0  0  0  0  0  0  0  0  0
   18.5900   34.7920   55.0460 C   0  0  0  0  0  0  0  0  0  0  0  0
   18.7660   34.1210   53.8480 C   0  0  0  0  0  0  0  0  0  0  0  0
   20.0490   33.7750   53.4560 C   0  0  0  0  0  0  0  0  0  0  0  0
   21.1340   34.1210   54.2380 C   0  0  0  0  0  0  0  0  0  0  0  0
   22.3680   33.7630   53.8260 F   0  0  0  0  0  0  0  0  0  0  0  0
   17.3270   35.2030   55.5290 N   0  0  0  0  0  0  0  0  0  0  0  0
   12.6850   35.0700   56.5750 C   0  0  0  0  0  0  0  0  0  0  0  0
   12.9310   36.1050   57.4630 C   0  0  0  0  0  0  0  0  0  0  0  0
   14.2030   36.6380   57.5250 C   0  0  0  0  0  0  0  0  0  0  0  0
   15.2180   36.2180   56.7570 N   0  0  0  0  0  0  0  0  0  0  0  0
   14.9470   35.2160   55.9120 C   0  0  0  0  0  0  0  0  0  0  0  0
   13.7080   34.5990   55.7670 C   0  0  0  0  0  0  0  0  0  0  0  0
   16.0950   34.7630   55.0820 C   0  0  0  0  0  0  0  0  0  0  0  0
   15.9070   34.0440   54.1110 O   0  0  0  0  0  0  0  0  0  0  0  0
   11.9760   36.6080   58.2770 F   0  0  0  0  0  0  0  0  0  0  0  0
  2  1  1  0
 13  1  2  0
 17  1  1  0
  3  2  1  0
  4  2  1  0
  8  2  1  0
  5  4  1  0
  6  5  1  0
 11  5  2  0
 12  5  2  0
  7  6  1  0
 10  6  1  0
  8  7  2  0
  9  7  1  0
 14 13  1  0
 15 14  2  0
 19 14  1  0
 16 15  1  0
 17 16  2  0
 18 17  1  0
 26 19  1  0
 21 20  2  0
 25 20  1  0
 22 21  1  0
 28 21  1  0
 23 22  2  0
 24 23  1  0
 25 24  2  0
 26 24  1  0
 27 26  2  0
A    1
C1
A    2
C2
A    3
C3
A    4
C4
A    5
S5
A    6
N6
A    7
C7
A    8
N8
A    9
N9
A   10
C10
A   11
O11
A   12
O12
A   13
C13
A   14
C14
A   15
C15
A   16
C16
A   17
C17
A   18
F18
A   19
N19
A   20
C20
A   21
C21
A   22
C22
A   23
N23
A   24
C24
A   25
C25
A   26
C26
A   27
O27
A   28
F28
M  END
>  <Id>  (45) 
5HU1_66F_B_501

>  <ChainId>  (45) 
B

>  <AsymId>  (45) 
D

>  <SeqNum>  (45) 
501

>  <Name>  (45) 
N-{3-[(5R)-3-amino-2,5-dimethyl-1,1-dioxido-5,6-dihydro-2H-1,2,4-thiadiazin-5-yl]-4-fluorophenyl}-5-fluoropyridine-2-carboxamide

>  <SystematicName>  (45) 
~{N}-[3-[(5~{R})-3-azanyl-2,5-dimethyl-1,1-bis(oxidanylidene)-6~{H}-1,2,4-thiadiazin-5-yl]-4-fluoranyl-phenyl]-5-fluoranyl-pyridine-2-carboxamide

>  <Synonyms>  (45) 


>  <Type>  (45) 
NON-POLYMER

>  <Formula>  (45) 
C17 H17 F2 N5 O3 S

>  <ObservedFormula>  (45) 
C17 S F2 N5 O3

>  <MolecularWeight>  (45) 
409.41

>  <ModifiedDate>  (45) 
2016-11-04

>  <Parent>  (45) 


>  <OneLetterCode>  (45) 


>  <SubcomponentList>  (45) 


>  <AmbiguousFlag>  (45) 
N

>  <InsertionCode>  (45) 


>  <InstanceId>  (45) 
5HU1_66F_B_501

>  <ChemCompId>  (45) 
66F

>  <PdbId>  (45) 
5HU1

>  <ResidueNumber>  (45) 
501

>  <InChI>  (45) 
InChI=1S/C17H17F2N5O3S/c1-17(9-28(26,27)24(2)16(20)23-17)12-7-11(4-5-13(12)19)22-15(25)14-6-3-10(18)8-21-14/h3-8H,9H2,1-2H3,(H2,20,23)(H,22,25)/t17-/m0/s1

>  <InChIKey>  (45) 
YHYKUSGACIYRML-KRWDZBQOSA-N

>  <SMILES>  (45) 
C[C@]1(CS(=O)(=O)N(C(=N1)N)C)c2cc(ccc2F)NC(=O)c3ccc(cn3)F

>  <MissingHeavyAtoms>  (45) 
0

>  <Model>  (45) 
1

>  <AltIds>  (45) 


>  <pKI>  (45) 
8.54

>  <ChemblID>  (45) 
CHEMBL3301601

>  <standardized_canonical_smiles>  (45) 
CN1C(N)=N[C@](C)(c2cc(NC(=O)c3ccc(F)cn3)ccc2F)CS1(=O)=O

$$$$
5HE5_60S_B_502
     RDKit          3D

 29 32  0  0  0  0  0  0  0  0999 V2000
   21.8680   34.5440   56.5020 C   0  0  0  0  0  0  0  0  0  0  0  0
   22.3100   33.1760   57.0240 C   0  0  0  0  0  0  0  0  0  0  0  0
   20.8940   34.9440   58.7520 C   0  0  0  0  0  0  0  0  0  0  0  0
   21.4360   32.6500   58.1260 C   0  0  0  0  0  0  0  0  0  0  0  0
   25.5050   34.8460   56.7260 C   0  0  0  0  0  0  0  0  0  0  0  0
   27.5790   34.6110   57.6700 C   0  0  0  0  0  0  0  0  0  0  0  0
   20.7520   34.4260   55.5460 C   0  0  0  0  0  0  0  0  0  0  0  0
   25.9220   35.6720   55.7690 N   0  0  0  0  0  0  0  0  0  0  0  0
   28.0660   35.4760   56.7200 C   0  0  0  0  0  0  0  0  0  0  0  0
   23.7040   33.3850   57.5730 C   0  0  0  0  0  0  0  0  0  0  0  0
   20.7220   33.8880   54.2740 C   0  0  0  0  0  0  0  0  0  0  0  0
   18.4700   34.4340   54.5480 C   0  0  0  0  0  0  0  0  0  0  0  0
   19.4210   33.8960   53.7030 C   0  0  0  0  0  0  0  0  0  0  0  0
   20.7560   33.5800   58.8870 N   0  0  0  0  0  0  0  0  0  0  0  0
   21.5450   35.3870   57.6430 N   0  0  0  0  0  0  0  0  0  0  0  0
   26.2830   34.3010   57.6770 N   0  0  0  0  0  0  0  0  0  0  0  0
   24.1480   34.5060   56.7580 N   0  0  0  0  0  0  0  0  0  0  0  0
   23.1520   35.0750   55.8780 C   0  0  0  0  0  0  0  0  0  0  0  0
   19.1790   34.9780   56.0030 S   0  0  0  0  0  0  0  0  0  0  0  0
   27.2140   36.0060   55.7830 C   0  0  0  0  0  0  0  0  0  0  0  0
   28.4750   34.0940   58.6180 N   0  0  0  0  0  0  0  0  0  0  0  0
   15.9390   34.6310   54.1560 N   0  0  0  0  0  0  0  0  0  0  0  0
   20.4490   35.7630   59.6520 N   0  0  0  0  0  0  0  0  0  0  0  0
   17.0830   34.5540   54.3170 C   0  0  0  0  0  0  0  0  0  0  0  0
   21.4000   31.4440   58.3320 O   0  0  0  0  0  0  0  0  0  0  0  0
   29.3610   35.7960   56.7420 F   0  0  0  0  0  0  0  0  0  0  0  0
   19.8900   33.0520   59.9330 C   0  0  0  0  0  0  0  0  0  0  0  0
   27.6640   36.9460   54.7070 C   0  0  0  0  0  0  0  0  0  0  0  0
   28.0170   32.8170   59.1690 C   0  0  0  0  0  0  0  0  0  0  0  0
  2  1  1  0
  7  1  1  0
 15  1  1  0
 18  1  1  0
  4  2  1  0
 10  2  1  0
 14  3  1  0
 15  3  1  0
 23  3  2  0
 14  4  1  0
 25  4  2  0
  8  5  1  0
 16  5  2  0
 17  5  1  0
  9  6  2  0
 16  6  1  0
 21  6  1  0
 11  7  2  0
 19  7  1  0
 20  8  2  0
 20  9  1  0
 26  9  1  0
 17 10  1  0
 13 11  1  0
 13 12  2  0
 19 12  1  0
 24 12  1  0
 27 14  1  0
 18 17  1  0
 28 20  1  0
 29 21  1  0
 24 22  3  0
A    1
C1
A    2
C2
A    3
C4
A    4
C5
A    5
C7
A    6
C10
A    7
C11
A    8
N12
A    9
C14
A   10
C15
A   11
C18
A   12
C19
A   13
C24
A   14
N3
A   15
N6
A   16
N8
A   17
N9
A   18
C13
A   19
S16
A   20
C17
A   21
N20
A   22
N21
A   23
N22
A   24
C23
A   25
O25
A   26
F26
A   27
C27
A   28
C28
A   29
C29
M  END
>  <Id>  (46) 
5HE5_60S_B_502

>  <ChainId>  (46) 
B

>  <AsymId>  (46) 
F

>  <SeqNum>  (46) 
502

>  <Name>  (46) 
5-{(2E,4aR,7aR)-6-[5-fluoro-4-methyl-6-(methylamino)pyrimidin-2-yl]-2-imino-3-methyl-4-oxooctahydro-7aH-pyrrolo[3,4-d]pyrimidin-7a-yl}thiophene-2-carbonitrile

>  <SystematicName>  (46) 
5-[(4~{a}~{R},7~{a}~{R})-2-azanylidene-6-[5-fluoranyl-4-methyl-6-(methylamino)pyrimidin-2-yl]-3-methyl-4-oxidanylidene-1,4~{a},5,7-tetrahydropyrrolo[3,4-d]pyrimidin-7~{a}-yl]thiophene-2-carbonitrile

>  <Synonyms>  (46) 


>  <Type>  (46) 
NON-POLYMER

>  <Formula>  (46) 
C18 H19 F N8 O S

>  <ObservedFormula>  (46) 
C18 S F N8 O

>  <MolecularWeight>  (46) 
414.46

>  <ModifiedDate>  (46) 
2016-03-11

>  <Parent>  (46) 


>  <OneLetterCode>  (46) 


>  <SubcomponentList>  (46) 


>  <AmbiguousFlag>  (46) 
N

>  <InsertionCode>  (46) 


>  <InstanceId>  (46) 
5HE5_60S_B_502

>  <ChemCompId>  (46) 
60S

>  <PdbId>  (46) 
5HE5

>  <ResidueNumber>  (46) 
502

>  <InChI>  (46) 
InChI=1S/C18H19FN8OS/c1-9-13(19)14(22-2)24-17(23-9)27-7-11-15(28)26(3)16(21)25-18(11,8-27)12-5-4-10(6-20)29-12/h4-5,11H,7-8H2,1-3H3,(H2,21,25)(H,22,23,24)/t11-,18-/m0/s1

>  <InChIKey>  (46) 
ZGUINBOSNMEMBB-VOJFVSQTSA-N

>  <SMILES>  (46) 
[H]/N=C/1\N[C@]2(CN(C[C@H]2C(=O)N1C)c3nc(c(c(n3)NC)F)C)c4ccc(s4)C#N

>  <MissingHeavyAtoms>  (46) 
0

>  <Model>  (46) 
1

>  <AltIds>  (46) 


>  <pKI>  (46) 
6.47

>  <ChemblID>  (46) 
CHEMBL3799879

>  <standardized_canonical_smiles>  (46) 
CNc1nc(N2C[C@H]3C(=O)N(C)C(N)=N[C@@]3(c3ccc(C#N)s3)C2)nc(C)c1F

$$$$
5HDZ_954_B_501
     RDKit          3D

 29 32  0  0  0  0  0  0  0  0999 V2000
   29.3650   35.8770   56.8300 F   0  0  0  0  0  0  0  0  0  0  0  0
   28.0920   35.4650   56.7180 C   0  0  0  0  0  0  0  0  0  0  0  0
   27.2430   36.0670   55.7790 C   0  0  0  0  0  0  0  0  0  0  0  0
   27.7420   37.0780   54.7870 C   0  0  0  0  0  0  0  0  0  0  0  0
   25.9420   35.7480   55.7210 N   0  0  0  0  0  0  0  0  0  0  0  0
   27.5460   34.5020   57.5580 C   0  0  0  0  0  0  0  0  0  0  0  0
   28.6300   33.7320   58.7010 S   0  0  0  0  0  0  0  0  0  0  0  0
   27.5990   32.4350   59.4080 C   0  0  0  0  0  0  0  0  0  0  0  0
   26.2510   34.1850   57.5210 N   0  0  0  0  0  0  0  0  0  0  0  0
   25.4940   34.8360   56.5960 C   0  0  0  0  0  0  0  0  0  0  0  0
   24.1510   34.5430   56.5610 N   0  0  0  0  0  0  0  0  0  0  0  0
   23.5800   33.4890   57.3910 C   0  0  0  0  0  0  0  0  0  0  0  0
   22.1560   33.3130   56.8430 C   0  0  0  0  0  0  0  0  0  0  0  0
   21.2790   31.5970   58.2190 O   0  0  0  0  0  0  0  0  0  0  0  0
   20.7000   33.7190   58.8000 N   0  0  0  0  0  0  0  0  0  0  0  0
   20.4130   35.9290   59.5390 N   0  0  0  0  0  0  0  0  0  0  0  0
   21.4060   35.5760   57.5100 N   0  0  0  0  0  0  0  0  0  0  0  0
   23.1460   35.1870   55.7180 C   0  0  0  0  0  0  0  0  0  0  0  0
   21.7720   34.7320   56.3670 C   0  0  0  0  0  0  0  0  0  0  0  0
   20.5480   34.6670   55.4960 C   0  0  0  0  0  0  0  0  0  0  0  0
   20.4300   34.0950   54.2510 C   0  0  0  0  0  0  0  0  0  0  0  0
   19.1080   34.0750   53.7610 C   0  0  0  0  0  0  0  0  0  0  0  0
   18.2010   34.6390   54.6330 C   0  0  0  0  0  0  0  0  0  0  0  0
   18.9840   35.2160   56.0480 S   0  0  0  0  0  0  0  0  0  0  0  0
   16.8010   34.7430   54.4970 C   0  0  0  0  0  0  0  0  0  0  0  0
   15.6670   34.8680   54.4450 N   0  0  0  0  0  0  0  0  0  0  0  0
   21.3310   32.7880   57.9940 C   0  0  0  0  0  0  0  0  0  0  0  0
   19.8770   33.1970   59.8960 C   0  0  0  0  0  0  0  0  0  0  0  0
   20.8500   35.1050   58.6280 C   0  0  0  0  0  0  0  0  0  0  0  0
  2  1  1  0
  3  2  2  0
  6  2  1  0
  4  3  1  0
  5  3  1  0
 10  5  2  0
  7  6  1  0
  9  6  2  0
  8  7  1  0
 10  9  1  0
 11 10  1  0
 12 11  1  0
 18 11  1  0
 13 12  1  0
 19 13  1  0
 27 13  1  0
 27 14  2  0
 27 15  1  0
 28 15  1  0
 29 15  1  0
 29 16  2  0
 19 17  1  0
 29 17  1  0
 19 18  1  0
 20 19  1  0
 21 20  2  0
 24 20  1  0
 22 21  1  0
 23 22  2  0
 24 23  1  0
 25 23  1  0
 26 25  3  0
A    1
F
A    2
C15
A    3
C13
A    4
C14
A    5
N5
A    6
C16
A    7
S1
A    8
C17
A    9
N6
A   10
C12
A   11
N4
A   12
C10
A   13
C9
A   14
O
A   15
N3
A   16
N2
A   17
N1
A   18
C11
A   19
C5
A   20
C
A   21
C1
A   22
C2
A   23
C3
A   24
S
A   25
C4
A   26
N
A   27
C8
A   28
C7
A   29
C6
M  END
>  <Id>  (47) 
5HDZ_954_B_501

>  <ChainId>  (47) 
B

>  <AsymId>  (47) 
D

>  <SeqNum>  (47) 
501

>  <Name>  (47) 
5-{(2E,4aR,7aR)-6-[5-fluoro-4-methyl-6-(methylsulfanyl)pyrimidin-2-yl]-2-imino-3-methyl-4-oxooctahydro-7aH-pyrrolo[3,4-d]pyrimidin-7a-yl}thiophene-2-carbonitrile

>  <SystematicName>  (47) 
5-[(4~{a}~{R},7~{a}~{R})-2-azanylidene-6-(5-fluoranyl-4-methyl-6-methylsulfanyl-pyrimidin-2-yl)-3-methyl-4-oxidanylidene-1,4~{a},5,7-tetrahydropyrrolo[3,4-d]pyrimidin-7~{a}-yl]thiophene-2-carbonitrile

>  <Synonyms>  (47) 


>  <Type>  (47) 
NON-POLYMER

>  <Formula>  (47) 
C18 H18 F N7 O S2

>  <ObservedFormula>  (47) 
C18 S2 F N7 O

>  <MolecularWeight>  (47) 
431.51

>  <ModifiedDate>  (47) 
2016-03-11

>  <Parent>  (47) 


>  <OneLetterCode>  (47) 


>  <SubcomponentList>  (47) 


>  <AmbiguousFlag>  (47) 
N

>  <InsertionCode>  (47) 


>  <InstanceId>  (47) 
5HDZ_954_B_501

>  <ChemCompId>  (47) 
954

>  <PdbId>  (47) 
5HDZ

>  <ResidueNumber>  (47) 
501

>  <InChI>  (47) 
InChI=1S/C18H18FN7OS2/c1-9-13(19)14(28-3)23-17(22-9)26-7-11-15(27)25(2)16(21)24-18(11,8-26)12-5-4-10(6-20)29-12/h4-5,11H,7-8H2,1-3H3,(H2,21,24)/t11-,18-/m0/s1

>  <InChIKey>  (47) 
RVOBSBJZKQOYEK-VOJFVSQTSA-N

>  <SMILES>  (47) 
[H]/N=C/1\N[C@]2(CN(C[C@H]2C(=O)N1C)c3nc(c(c(n3)SC)F)C)c4ccc(s4)C#N

>  <MissingHeavyAtoms>  (47) 
0

>  <Model>  (47) 
1

>  <AltIds>  (47) 


>  <pKI>  (47) 
7.35

>  <ChemblID>  (47) 
CHEMBL3797680

>  <standardized_canonical_smiles>  (47) 
CSc1nc(N2C[C@H]3C(=O)N(C)C(N)=N[C@@]3(c3ccc(C#N)s3)C2)nc(C)c1F

$$$$
5HDX_60U_B_501
     RDKit          3D

 30 33  0  0  0  0  0  0  0  0999 V2000
   20.4950   34.4380   55.4760 C   0  0  0  0  0  0  0  0  0  0  0  0
   27.5200   34.3860   57.4220 C   0  0  0  0  0  0  0  0  0  0  0  0
   23.0050   35.1270   55.7310 C   0  0  0  0  0  0  0  0  0  0  0  0
   23.5920   33.2740   57.2090 C   0  0  0  0  0  0  0  0  0  0  0  0
   28.0440   35.3420   56.6000 C   0  0  0  0  0  0  0  0  0  0  0  0
   27.2020   35.9300   55.6950 C   0  0  0  0  0  0  0  0  0  0  0  0
   20.3570   33.8610   54.2280 C   0  0  0  0  0  0  0  0  0  0  0  0
   20.7270   33.5670   58.7740 N   0  0  0  0  0  0  0  0  0  0  0  0
   18.1310   34.4820   54.6130 C   0  0  0  0  0  0  0  0  0  0  0  0
   16.7390   34.6470   54.4570 C   0  0  0  0  0  0  0  0  0  0  0  0
   25.4380   34.7010   56.4910 C   0  0  0  0  0  0  0  0  0  0  0  0
   21.6960   34.5630   56.3420 C   0  0  0  0  0  0  0  0  0  0  0  0
   22.1440   33.1830   56.7920 C   0  0  0  0  0  0  0  0  0  0  0  0
   20.8220   34.9450   58.6250 C   0  0  0  0  0  0  0  0  0  0  0  0
   21.3970   32.6470   57.9850 C   0  0  0  0  0  0  0  0  0  0  0  0
   21.4230   35.4060   57.4850 N   0  0  0  0  0  0  0  0  0  0  0  0
   26.2160   34.0640   57.3970 N   0  0  0  0  0  0  0  0  0  0  0  0
   24.0390   34.3750   56.4120 N   0  0  0  0  0  0  0  0  0  0  0  0
   25.9070   35.6020   55.6400 N   0  0  0  0  0  0  0  0  0  0  0  0
   18.9650   35.0500   55.9950 S   0  0  0  0  0  0  0  0  0  0  0  0
   15.5870   34.7630   54.3970 N   0  0  0  0  0  0  0  0  0  0  0  0
   20.3870   35.7650   59.5270 N   0  0  0  0  0  0  0  0  0  0  0  0
   19.0240   33.8900   53.7430 C   0  0  0  0  0  0  0  0  0  0  0  0
   21.4750   31.4550   58.2340 O   0  0  0  0  0  0  0  0  0  0  0  0
   29.3380   35.6770   56.6720 F   0  0  0  0  0  0  0  0  0  0  0  0
   19.9550   33.0410   59.8910 C   0  0  0  0  0  0  0  0  0  0  0  0
   28.4110   33.8510   58.3430 O   0  0  0  0  0  0  0  0  0  0  0  0
   27.7550   36.9470   54.7400 C   0  0  0  0  0  0  0  0  0  0  0  0
   27.9580   32.5910   58.8590 C   0  0  0  0  0  0  0  0  0  0  0  0
   28.9200   32.2010   59.9580 C   0  0  0  0  0  0  0  0  0  0  0  0
  7  1  2  0
 12  1  1  0
 20  1  1  0
  5  2  2  0
 17  2  1  0
 27  2  1  0
 12  3  1  0
 18  3  1  0
 13  4  1  0
 18  4  1  0
  6  5  1  0
 25  5  1  0
 19  6  2  0
 28  6  1  0
 23  7  1  0
 14  8  1  0
 15  8  1  0
 26  8  1  0
 10  9  1  0
 20  9  1  0
 23  9  2  0
 21 10  3  0
 17 11  2  0
 18 11  1  0
 19 11  1  0
 13 12  1  0
 16 12  1  0
 15 13  1  0
 16 14  1  0
 22 14  2  0
 24 15  2  0
 29 27  1  0
 30 29  1  0
A    1
C10
A    2
C11
A    3
C13
A    4
C14
A    5
C15
A    6
C17
A    7
C18
A    8
N3
A    9
C19
A   10
C22
A   11
C7
A   12
C1
A   13
C2
A   14
C4
A   15
C5
A   16
N6
A   17
N8
A   18
N9
A   19
N12
A   20
S16
A   21
N20
A   22
N21
A   23
C23
A   24
O24
A   25
F25
A   26
C26
A   27
O27
A   28
C28
A   29
C29
A   30
C30
M  END
>  <Id>  (48) 
5HDX_60U_B_501

>  <ChainId>  (48) 
B

>  <AsymId>  (48) 
D

>  <SeqNum>  (48) 
501

>  <Name>  (48) 
5-[(2E,4aR,7aR)-6-(4-ethoxy-5-fluoro-6-methylpyrimidin-2-yl)-2-imino-3-methyl-4-oxooctahydro-7aH-pyrrolo[3,4-d]pyrimidin-7a-yl]thiophene-2-carbonitrile

>  <SystematicName>  (48) 
5-[(4~{a}~{R},7~{a}~{R})-2-azanylidene-6-(4-ethoxy-5-fluoranyl-6-methyl-pyrimidin-2-yl)-3-methyl-4-oxidanylidene-1,4~{a},5,7-tetrahydropyrrolo[3,4-d]pyrimidin-7~{a}-yl]thiophene-2-carbonitrile

>  <Synonyms>  (48) 


>  <Type>  (48) 
NON-POLYMER

>  <Formula>  (48) 
C19 H20 F N7 O2 S

>  <ObservedFormula>  (48) 
C19 S F N7 O2

>  <MolecularWeight>  (48) 
429.471

>  <ModifiedDate>  (48) 
2016-03-11

>  <Parent>  (48) 


>  <OneLetterCode>  (48) 


>  <SubcomponentList>  (48) 


>  <AmbiguousFlag>  (48) 
N

>  <InsertionCode>  (48) 


>  <InstanceId>  (48) 
5HDX_60U_B_501

>  <ChemCompId>  (48) 
60U

>  <PdbId>  (48) 
5HDX

>  <ResidueNumber>  (48) 
501

>  <InChI>  (48) 
InChI=1S/C19H20FN7O2S/c1-4-29-15-14(20)10(2)23-18(24-15)27-8-12-16(28)26(3)17(22)25-19(12,9-27)13-6-5-11(7-21)30-13/h5-6,12H,4,8-9H2,1-3H3,(H2,22,25)/t12-,19-/m0/s1

>  <InChIKey>  (48) 
NAIWJSDALLQSJO-BUXKBTBVSA-N

>  <SMILES>  (48) 
[H]/N=C/1\N[C@]2(CN(C[C@H]2C(=O)N1C)c3nc(c(c(n3)OCC)F)C)c4ccc(s4)C#N

>  <MissingHeavyAtoms>  (48) 
0

>  <Model>  (48) 
1

>  <AltIds>  (48) 


>  <pKI>  (48) 
7.32

>  <ChemblID>  (48) 
CHEMBL3799339

>  <standardized_canonical_smiles>  (48) 
CCOc1nc(N2C[C@H]3C(=O)N(C)C(N)=N[C@@]3(c3ccc(C#N)s3)C2)nc(C)c1F

$$$$
5HDV_60V_B_502
     RDKit          3D

 29 32  0  0  0  0  0  0  0  0999 V2000
   21.0870   35.6060   57.0970 N   0  0  0  0  0  0  0  0  0  0  0  0
   18.2290   33.9740   53.6810 C   0  0  0  0  0  0  0  0  0  0  0  0
   17.4840   34.6840   54.6090 C   0  0  0  0  0  0  0  0  0  0  0  0
   20.7740   35.1200   58.3110 C   0  0  0  0  0  0  0  0  0  0  0  0
   21.2830   32.8590   57.6140 C   0  0  0  0  0  0  0  0  0  0  0  0
   21.8490   33.4250   56.3230 C   0  0  0  0  0  0  0  0  0  0  0  0
   23.3390   33.7550   56.4730 C   0  0  0  0  0  0  0  0  0  0  0  0
   22.2830   35.3650   54.9430 C   0  0  0  0  0  0  0  0  0  0  0  0
   24.6890   35.5580   55.3540 C   0  0  0  0  0  0  0  0  0  0  0  0
   26.9230   35.7970   55.8080 C   0  0  0  0  0  0  0  0  0  0  0  0
   25.8080   37.1700   54.1990 C   0  0  0  0  0  0  0  0  0  0  0  0
   24.5920   38.7070   52.8450 C   0  0  0  0  0  0  0  0  0  0  0  0
   28.1530   37.3940   54.4920 F   0  0  0  0  0  0  0  0  0  0  0  0
   26.9930   36.8090   54.8320 C   0  0  0  0  0  0  0  0  0  0  0  0
   28.1170   35.4010   56.6240 C   0  0  0  0  0  0  0  0  0  0  0  0
   25.7630   35.1670   56.0770 N   0  0  0  0  0  0  0  0  0  0  0  0
   25.8230   38.2960   53.4520 O   0  0  0  0  0  0  0  0  0  0  0  0
   24.6680   36.5450   54.4240 N   0  0  0  0  0  0  0  0  0  0  0  0
   23.5240   34.9110   55.5760 N   0  0  0  0  0  0  0  0  0  0  0  0
   21.3310   31.6650   57.8480 O   0  0  0  0  0  0  0  0  0  0  0  0
   20.7020   33.7520   58.4950 N   0  0  0  0  0  0  0  0  0  0  0  0
   20.0290   33.1970   59.6770 C   0  0  0  0  0  0  0  0  0  0  0  0
   20.4410   35.9070   59.2660 N   0  0  0  0  0  0  0  0  0  0  0  0
   21.2330   34.7680   55.8920 C   0  0  0  0  0  0  0  0  0  0  0  0
   19.9210   34.5980   55.1900 C   0  0  0  0  0  0  0  0  0  0  0  0
   19.6050   33.9300   53.9980 C   0  0  0  0  0  0  0  0  0  0  0  0
   18.4900   35.2820   55.8800 S   0  0  0  0  0  0  0  0  0  0  0  0
   16.0950   34.9440   54.6040 C   0  0  0  0  0  0  0  0  0  0  0  0
   14.9810   35.1810   54.6730 N   0  0  0  0  0  0  0  0  0  0  0  0
  4  1  1  0
 24  1  1  0
  3  2  2  0
 26  2  1  0
 27  3  1  0
 28  3  1  0
 21  4  1  0
 23  4  2  0
  6  5  1  0
 20  5  2  0
 21  5  1  0
  7  6  1  0
 24  6  1  0
 19  7  1  0
 19  8  1  0
 24  8  1  0
 16  9  2  0
 18  9  1  0
 19  9  1  0
 14 10  2  0
 15 10  1  0
 16 10  1  0
 14 11  1  0
 17 11  1  0
 18 11  2  0
 17 12  1  0
 14 13  1  0
 22 21  1  0
 25 24  1  0
 26 25  2  0
 27 25  1  0
 29 28  3  0
A    1
N1
A    2
C2
A    3
C3
A    4
C6
A    5
C8
A    6
C9
A    7
C10
A    8
C11
A    9
C12
A   10
C13
A   11
C16
A   12
C17
A   13
F
A   14
C15
A   15
C14
A   16
N5
A   17
O1
A   18
N6
A   19
N4
A   20
O
A   21
N3
A   22
C7
A   23
N2
A   24
C5
A   25
C
A   26
C1
A   27
S
A   28
C4
A   29
N
M  END
>  <Id>  (49) 
5HDV_60V_B_502

>  <ChainId>  (49) 
B

>  <AsymId>  (49) 
E

>  <SeqNum>  (49) 
502

>  <Name>  (49) 
5-[(2E,4aR,7aR)-6-(5-fluoro-4-methoxy-6-methylpyrimidin-2-yl)-2-imino-3-methyl-4-oxooctahydro-7aH-pyrrolo[3,4-d]pyrimidin-7a-yl]thiophene-2-carbonitrile

>  <SystematicName>  (49) 
5-[(4~{a}~{R},7~{a}~{R})-2-azanylidene-6-(5-fluoranyl-4-methoxy-6-methyl-pyrimidin-2-yl)-3-methyl-4-oxidanylidene-1,4~{a},5,7-tetrahydropyrrolo[3,4-d]pyrimidin-7~{a}-yl]thiophene-2-carbonitrile

>  <Synonyms>  (49) 


>  <Type>  (49) 
NON-POLYMER

>  <Formula>  (49) 
C18 H18 F N7 O2 S

>  <ObservedFormula>  (49) 
C18 S F N7 O2

>  <MolecularWeight>  (49) 
415.445

>  <ModifiedDate>  (49) 
2016-03-11

>  <Parent>  (49) 


>  <OneLetterCode>  (49) 


>  <SubcomponentList>  (49) 


>  <AmbiguousFlag>  (49) 
N

>  <InsertionCode>  (49) 


>  <InstanceId>  (49) 
5HDV_60V_B_502

>  <ChemCompId>  (49) 
60V

>  <PdbId>  (49) 
5HDV

>  <ResidueNumber>  (49) 
502

>  <InChI>  (49) 
InChI=1S/C18H18FN7O2S/c1-9-13(19)14(28-3)23-17(22-9)26-7-11-15(27)25(2)16(21)24-18(11,8-26)12-5-4-10(6-20)29-12/h4-5,11H,7-8H2,1-3H3,(H2,21,24)/t11-,18-/m0/s1

>  <InChIKey>  (49) 
ZPAVWCJTQRQRQL-VOJFVSQTSA-N

>  <SMILES>  (49) 
[H]/N=C/1\N[C@]2(CN(C[C@H]2C(=O)N1C)c3nc(c(c(n3)OC)F)C)c4ccc(s4)C#N

>  <MissingHeavyAtoms>  (49) 
0

>  <Model>  (49) 
1

>  <AltIds>  (49) 


>  <pKI>  (49) 
7.82

>  <ChemblID>  (49) 
CHEMBL3798544

>  <standardized_canonical_smiles>  (49) 
COc1nc(N2C[C@H]3C(=O)N(C)C(N)=N[C@@]3(c3ccc(C#N)s3)C2)nc(C)c1F

$$$$
5HDU_60W_B_502
     RDKit          3D

 34 38  0  0  0  0  0  0  0  0999 V2000
   17.6920   34.2330   54.4460 C   0  0  0  0  0  0  0  0  0  0  0  0
   18.6700   34.7520   55.3960 C   0  0  0  0  0  0  0  0  0  0  0  0
   19.9480   34.5740   54.9580 C   0  0  0  0  0  0  0  0  0  0  0  0
   21.2010   34.8680   55.7370 C   0  0  0  0  0  0  0  0  0  0  0  0
   20.6560   35.2030   58.1360 C   0  0  0  0  0  0  0  0  0  0  0  0
   20.1970   33.2810   59.6240 C   0  0  0  0  0  0  0  0  0  0  0  0
   21.9290   33.5740   56.2210 C   0  0  0  0  0  0  0  0  0  0  0  0
   24.6970   35.7670   55.2150 C   0  0  0  0  0  0  0  0  0  0  0  0
   25.7870   37.3310   53.9860 C   0  0  0  0  0  0  0  0  0  0  0  0
   24.5160   38.8930   52.7200 C   0  0  0  0  0  0  0  0  0  0  0  0
   26.9830   36.9510   54.5700 C   0  0  0  0  0  0  0  0  0  0  0  0
   26.9420   35.9620   55.5400 C   0  0  0  0  0  0  0  0  0  0  0  0
   16.2180   34.2440   54.6650 C   0  0  0  0  0  0  0  0  0  0  0  0
   15.6880   34.8980   55.7740 C   0  0  0  0  0  0  0  0  0  0  0  0
   14.0200   33.3770   54.1550 C   0  0  0  0  0  0  0  0  0  0  0  0
   15.3660   33.4990   53.8440 C   0  0  0  0  0  0  0  0  0  0  0  0
   13.8090   35.4240   57.2500 C   0  0  0  0  0  0  0  0  0  0  0  0
   13.4290   35.9400   58.1900 N   0  0  0  0  0  0  0  0  0  0  0  0
   14.3310   34.7830   56.0740 C   0  0  0  0  0  0  0  0  0  0  0  0
   13.4970   34.0140   55.2660 C   0  0  0  0  0  0  0  0  0  0  0  0
   18.3140   33.6860   53.3430 C   0  0  0  0  0  0  0  0  0  0  0  0
   20.0190   33.8160   53.4190 S   0  0  0  0  0  0  0  0  0  0  0  0
   22.2790   35.5240   54.8550 C   0  0  0  0  0  0  0  0  0  0  0  0
   23.5250   35.1600   55.5250 N   0  0  0  0  0  0  0  0  0  0  0  0
   23.3790   34.0370   56.4530 C   0  0  0  0  0  0  0  0  0  0  0  0
   21.3170   32.9740   57.4770 C   0  0  0  0  0  0  0  0  0  0  0  0
   21.3870   31.7840   57.6960 O   0  0  0  0  0  0  0  0  0  0  0  0
   20.6940   33.8400   58.3570 N   0  0  0  0  0  0  0  0  0  0  0  0
   20.3720   35.9820   59.1160 N   0  0  0  0  0  0  0  0  0  0  0  0
   20.9640   35.6930   56.9370 N   0  0  0  0  0  0  0  0  0  0  0  0
   25.7940   35.3570   55.8830 N   0  0  0  0  0  0  0  0  0  0  0  0
   28.1290   37.5060   54.1380 F   0  0  0  0  0  0  0  0  0  0  0  0
   24.6410   36.7390   54.2760 N   0  0  0  0  0  0  0  0  0  0  0  0
   25.7870   38.4180   53.1890 O   0  0  0  0  0  0  0  0  0  0  0  0
  2  1  1  0
 13  1  1  0
 21  1  2  0
  3  2  2  0
  4  3  1  0
 22  3  1  0
  7  4  1  0
 23  4  1  0
 30  4  1  0
 28  5  1  0
 29  5  2  0
 30  5  1  0
 28  6  1  0
 25  7  1  0
 26  7  1  0
 24  8  1  0
 31  8  1  0
 33  8  2  0
 11  9  2  0
 33  9  1  0
 34  9  1  0
 34 10  1  0
 12 11  1  0
 32 11  1  0
 31 12  2  0
 14 13  2  0
 16 13  1  0
 19 14  1  0
 16 15  2  0
 20 15  1  0
 18 17  3  0
 19 17  1  0
 20 19  2  0
 22 21  1  0
 24 23  1  0
 25 24  1  0
 27 26  2  0
 28 26  1  0
A    1
C1
A    2
C2
A    3
C3
A    4
C4
A    5
C5
A    6
C6
A    7
C8
A    8
C11
A    9
C12
A   10
C13
A   11
C14
A   12
C15
A   13
C16
A   14
C17
A   15
C20
A   16
C21
A   17
C22
A   18
N6
A   19
C18
A   20
C19
A   21
C
A   22
S
A   23
C10
A   24
N3
A   25
C9
A   26
C7
A   27
O
A   28
N2
A   29
N1
A   30
N
A   31
N5
A   32
F
A   33
N4
A   34
O1
M  END
>  <Id>  (50) 
5HDU_60W_B_502

>  <ChainId>  (50) 
B

>  <AsymId>  (50) 
F

>  <SeqNum>  (50) 
502

>  <Name>  (50) 
3-{5-[(2E,4aR,7aR)-6-(5-fluoro-4-methoxypyrimidin-2-yl)-2-imino-3-methyl-4-oxooctahydro-7aH-pyrrolo[3,4-d]pyrimidin-7a-yl]thiophen-3-yl}benzonitrile

>  <SystematicName>  (50) 
3-[5-[(4~{a}~{R},7~{a}~{R})-2-azanylidene-6-(5-fluoranyl-4-methoxy-pyrimidin-2-yl)-3-methyl-4-oxidanylidene-1,4~{a},5,7-tetrahydropyrrolo[3,4-d]pyrimidin-7~{a}-yl]thiophen-3-yl]benzenecarbonitrile

>  <Synonyms>  (50) 


>  <Type>  (50) 
NON-POLYMER

>  <Formula>  (50) 
C23 H20 F N7 O2 S

>  <ObservedFormula>  (50) 
C23 S F N7 O2

>  <MolecularWeight>  (50) 
477.514

>  <ModifiedDate>  (50) 
2016-03-11

>  <Parent>  (50) 


>  <OneLetterCode>  (50) 


>  <SubcomponentList>  (50) 


>  <AmbiguousFlag>  (50) 
N

>  <InsertionCode>  (50) 


>  <InstanceId>  (50) 
5HDU_60W_B_502

>  <ChemCompId>  (50) 
60W

>  <PdbId>  (50) 
5HDU

>  <ResidueNumber>  (50) 
502

>  <InChI>  (50) 
InChI=1S/C23H20FN7O2S/c1-30-20(32)16-10-31(22-27-9-17(24)19(28-22)33-2)12-23(16,29-21(30)26)18-7-15(11-34-18)14-5-3-4-13(6-14)8-25/h3-7,9,11,16H,10,12H2,1-2H3,(H2,26,29)/t16-,23-/m0/s1

>  <InChIKey>  (50) 
UKGROMSNWKWCLS-HJPURHCSSA-N

>  <SMILES>  (50) 
[H]/N=C/1\N[C@]2(CN(C[C@H]2C(=O)N1C)c3ncc(c(n3)OC)F)c4cc(cs4)c5cccc(c5)C#N

>  <MissingHeavyAtoms>  (50) 
0

>  <Model>  (50) 
1

>  <AltIds>  (50) 


>  <pKI>  (50) 
8.85

>  <ChemblID>  (50) 
CHEMBL3800286

>  <standardized_canonical_smiles>  (50) 
COc1nc(N2C[C@H]3C(=O)N(C)C(N)=N[C@@]3(c3cc(-c4cccc(C#N)c4)cs3)C2)ncc1F

$$$$
5V0N_8W4_C_405
     RDKit          3D

 47 52  0  0  0  0  0  0  0  0999 V2000
   34.3920  -15.2970   95.2340 C   0  0  0  0  0  0  0  0  0  0  0  0
   33.0100  -14.7810   97.1210 C   0  0  0  0  0  0  0  0  0  0  0  0
   43.3740  -15.6670   95.9690 C   0  0  0  0  0  0  0  0  0  0  0  0
   42.8700  -14.7620   94.8940 C   0  0  0  0  0  0  0  0  0  0  0  0
   40.5980  -14.9400   95.5680 C   0  0  0  0  0  0  0  0  0  0  0  0
   32.6560  -10.8880   95.9720 C   0  0  0  0  0  0  0  0  0  0  0  0
   32.7670  -11.4780   94.5470 C   0  0  0  0  0  0  0  0  0  0  0  0
   37.7890  -12.9710   96.7360 C   0  0  0  0  0  0  0  0  0  0  0  0
   37.1390  -11.7370   96.7570 C   0  0  0  0  0  0  0  0  0  0  0  0
   35.0540  -10.4870   96.6460 C   0  0  0  0  0  0  0  0  0  0  0  0
   35.7220   -9.3560   97.1310 C   0  0  0  0  0  0  0  0  0  0  0  0
   35.4630  -15.6910   96.0500 C   0  0  0  0  0  0  0  0  0  0  0  0
   36.7710  -16.1420   95.4280 C   0  0  0  0  0  0  0  0  0  0  0  0
   37.9920  -15.2820   95.8630 C   0  0  0  0  0  0  0  0  0  0  0  0
   34.0480  -15.1950   97.9720 C   0  0  0  0  0  0  0  0  0  0  0  0
   39.2580  -15.5900   95.0560 C   0  0  0  0  0  0  0  0  0  0  0  0
   37.1400   -7.0830   95.5320 O   0  0  0  0  0  0  0  0  0  0  0  0
   37.4750   -6.7560   96.9210 S   0  0  0  0  0  0  0  0  0  0  0  0
   35.9920   -6.0350   97.4770 C   0  0  0  0  0  0  0  0  0  0  0  0
   35.3940   -5.0660   96.5170 C   0  0  0  0  0  0  0  0  0  0  0  0
   36.2130   -5.2320   98.7000 C   0  0  0  0  0  0  0  0  0  0  0  0
   34.9440   -6.9550   97.7300 C   0  0  0  0  0  0  0  0  0  0  0  0
   34.7840   -8.2710   97.1790 N   0  0  0  0  0  0  0  0  0  0  0  0
   33.5450   -8.7720   96.7710 C   0  0  0  0  0  0  0  0  0  0  0  0
   33.6560  -10.1000   96.4130 C   0  0  0  0  0  0  0  0  0  0  0  0
   35.7510  -11.6560   96.4950 C   0  0  0  0  0  0  0  0  0  0  0  0
   37.5400  -13.8930   95.7930 N   0  0  0  0  0  0  0  0  0  0  0  0
   33.2030  -14.8500   95.7580 C   0  0  0  0  0  0  0  0  0  0  0  0
   35.2660  -15.6260   97.4330 C   0  0  0  0  0  0  0  0  0  0  0  0
   39.4360  -17.0030   95.0370 O   0  0  0  0  0  0  0  0  0  0  0  0
   41.5420  -15.1280   94.4850 N   0  0  0  0  0  0  0  0  0  0  0  0
   42.3860  -15.9110   96.9910 N   0  0  0  0  0  0  0  0  0  0  0  0
   42.8730  -16.5820   98.2050 C   0  0  0  0  0  0  0  0  0  0  0  0
   43.1440  -18.0330   97.8610 C   0  0  0  0  0  0  0  0  0  0  0  0
   42.0860  -18.9390   97.6950 C   0  0  0  0  0  0  0  0  0  0  0  0
   42.3240  -20.2600   97.3610 C   0  0  0  0  0  0  0  0  0  0  0  0
   43.5680  -20.7320   97.1640 C   0  0  0  0  0  0  0  0  0  0  0  0
   44.6380  -19.8680   97.3320 C   0  0  0  0  0  0  0  0  0  0  0  0
   44.4200  -18.5310   97.6760 C   0  0  0  0  0  0  0  0  0  0  0  0
   41.0210  -15.6090   96.8780 C   0  0  0  0  0  0  0  0  0  0  0  0
   40.2290  -15.8370   97.7970 O   0  0  0  0  0  0  0  0  0  0  0  0
   38.3780  -13.2930   97.7960 O   0  0  0  0  0  0  0  0  0  0  0  0
   37.7800  -10.6190   97.2750 C   0  0  0  0  0  0  0  0  0  0  0  0
   37.0890   -9.4160   97.4530 C   0  0  0  0  0  0  0  0  0  0  0  0
   37.7010   -8.2280   97.7920 N   0  0  0  0  0  0  0  0  0  0  0  0
   38.7490   -8.1400   98.8350 C   0  0  0  0  0  0  0  0  0  0  0  0
   38.4900   -5.7730   97.0930 O   0  0  0  0  0  0  0  0  0  0  0  0
  7  6  1  0
 28  2  1  0
 28  1  2  0
  2 15  2  0
  1 12  1  0
  6 25  1  0
 15 29  1  0
 12 29  2  0
 12 13  1  0
 25 24  2  0
 25 10  1  0
 13 14  1  0
 24 23  1  0
 10 26  1  0
 10 11  2  0
 26  9  2  0
 14 27  1  0
 14 16  1  0
 23 11  1  0
 23 22  1  0
 27  8  1  0
 30 16  1  0
 11 44  1  0
 16  5  1  0
 22 19  1  0
  9  8  1  0
  9 43  1  0
  8 42  2  0
 20 19  1  0
 17 18  2  0
 44 43  2  0
 44 45  1  0
 19 18  1  0
 19 21  1  0
  5 31  1  0
  5 40  1  0
 31  4  1  0
 18 45  1  0
 18 47  2  0
 41 40  2  0
 45 46  1  0
 40 32  1  0
 36 35  2  0
 36 37  1  0
 35 34  1  0
  4  3  1  0
 37 38  2  0
 32  3  1  0
 32 33  1  0
 34 33  1  0
 34 39  2  0
 38 39  1  0
A    1
C21
A    2
C23
A    3
C31
A    4
C30
A    5
C28
A    6
C10
A    7
C11
A    8
C16
A    9
C15
A   10
C13
A   11
C12
A   12
C20
A   13
C19
A   14
C18
A   15
C24
A   16
C26
A   17
O01
A   18
S02
A   19
C03
A   20
C04
A   21
C05
A   22
C06
A   23
N07
A   24
C08
A   25
C09
A   26
C14
A   27
N17
A   28
C22
A   29
C25
A   30
O27
A   31
N29
A   32
N32
A   33
C33
A   34
C34
A   35
C35
A   36
C36
A   37
C37
A   38
C38
A   39
C39
A   40
C40
A   41
O41
A   42
O42
A   43
C43
A   44
C44
A   45
N45
A   46
C46
A   47
O47
M  END
>  <InstanceId>  (51) 
5V0N_8W4

>  <ChemCompId>  (51) 
8W4

>  <PdbId>  (51) 
5V0N

>  <ChainId>  (51) 
C

>  <ResidueNumber>  (51) 
405

>  <InsertionCode>  (51) 
null

>  <Model>  (51) 
1

>  <AltIds>  (51) 


>  <MissingHeavyAtoms>  (51) 
0

>  <ObservedFormula>  (51) 
C36 N5 O5 S

>  <AsymId>  (51) 
T

>  <SeqNum>  (51) 
405

>  <Name>  (51) 
N-{(1S,2S)-1-[(2S)-4-benzyl-3-oxopiperazin-2-yl]-1-hydroxy-3-phenylpropan-2-yl}-7-ethyl-1,3,3-trimethyl-2,2-dioxo-1,2,3,4-tetrahydro-2lambda~6~-[1,2,5]thiadiazepino[3,4,5-hi]indole-9-carboxamide

>  <SystematicName>  (51) 
3-ethyl-9,11,11-trimethyl-10,10-bis(oxidanylidene)-~{N}-[(1~{S},2~{S})-1-oxidanyl-1-[(2~{S})-3-oxidanylidene-4-(phenylmethyl)piperazin-2-yl]-3-phenyl-propan-2-yl]-10$l^{6}-thia-1,9-diazatricyclo[6.4.1.0^{4,13}]trideca-2,4,6,8(13)-tetraene-6-carboxamide

>  <Synonyms>  (51) 


>  <Type>  (51) 
NON-POLYMER

>  <Formula>  (51) 
C36 H43 N5 O5 S

>  <MolecularWeight>  (51) 
657.822

>  <ModifiedDate>  (51) 
2017-04-28

>  <Parent>  (51) 


>  <OneLetterCode>  (51) 


>  <SubcomponentList>  (51) 


>  <AmbiguousFlag>  (51) 
N

>  <InChI>  (51) 
InChI=1S/C36H43N5O5S/c1-5-26-22-41-23-36(2,3)47(45,46)39(4)30-20-27(19-28(26)32(30)41)34(43)38-29(18-24-12-8-6-9-13-24)33(42)31-35(44)40(17-16-37-31)21-25-14-10-7-11-15-25/h6-15,19-20,22,29,31,33,37,42H,5,16-18,21,23H2,1-4H3,(H,38,43)/t29-,31-,33-/m0/s1

>  <InChIKey>  (51) 
WBWSVNAKBNLSOJ-WXWREJFYSA-N

>  <SMILES>  (51) 
CCc1cn2c3c1cc(cc3N(S(=O)(=O)C(C2)(C)C)C)C(=O)N[C@@H](Cc4ccccc4)[C@@H]([C@H]5C(=O)N(CCN5)Cc6ccccc6)O

>  <pKI>  (51) 
7.17

>  <ChemblID>  (51) 
-

>  <standardized_canonical_smiles>  (51) 
CCc1cn2c3c(cc(C(=O)N[C@@H](Cc4ccccc4)[C@H](O)[C@@H]4NCCN(Cc5ccccc5)C4=O)cc13)N(C)S(=O)(=O)C(C)(C)C2

$$$$
5DQC_5E7_C_401
     RDKit          3D

 49 51  0  0  0  0  0  0  0  0999 V2000
   42.2920   -8.0030  101.4630 C   0  0  0  0  0  0  0  0  0  0  0  0
   41.2030   -7.9540  100.4640 N   0  0  0  0  0  0  0  0  0  0  0  0
   40.8720   -6.4510   99.7160 S   0  0  0  0  0  0  0  0  0  0  0  0
   42.0460   -5.6770   99.8070 O   0  0  0  0  0  0  0  0  0  0  0  0
   39.5760   -5.6750  100.6330 C   0  0  0  0  0  0  0  0  0  0  0  0
   40.4140   -6.6590   98.3950 O   0  0  0  0  0  0  0  0  0  0  0  0
   40.4510   -9.1620  100.1170 C   0  0  0  0  0  0  0  0  0  0  0  0
   41.0310  -10.4600  100.1890 C   0  0  0  0  0  0  0  0  0  0  0  0
   40.3140  -11.6150   99.8370 C   0  0  0  0  0  0  0  0  0  0  0  0
   40.8600  -13.0240   99.8960 C   0  0  0  0  0  0  0  0  0  0  0  0
   40.5340  -13.9840   98.9410 N   0  0  0  0  0  0  0  0  0  0  0  0
   40.8970  -15.4180   98.8220 C   0  0  0  0  0  0  0  0  0  0  0  0
   39.6780  -16.3200   98.4520 C   0  0  0  0  0  0  0  0  0  0  0  0
   38.3270  -15.8570   99.0510 C   0  0  0  0  0  0  0  0  0  0  0  0
   37.1080  -15.8190   98.3520 C   0  0  0  0  0  0  0  0  0  0  0  0
   35.9180  -15.3890   98.9500 C   0  0  0  0  0  0  0  0  0  0  0  0
   35.9030  -14.9720  100.2690 C   0  0  0  0  0  0  0  0  0  0  0  0
   37.0850  -14.9870  100.9910 C   0  0  0  0  0  0  0  0  0  0  0  0
   38.2540  -15.4230  100.3750 C   0  0  0  0  0  0  0  0  0  0  0  0
   42.0930  -15.5470   97.7870 C   0  0  0  0  0  0  0  0  0  0  0  0
   42.3780  -16.9000   97.6210 O   0  0  0  0  0  0  0  0  0  0  0  0
   43.3550  -14.8650   98.3950 C   0  0  0  0  0  0  0  0  0  0  0  0
   44.5640  -14.8830   97.5280 N   0  0  0  0  0  0  0  0  0  0  0  0
   45.8300  -15.0960   98.2780 C   0  0  0  0  0  0  0  0  0  0  0  0
   46.4780  -13.7020   98.5710 C   0  0  0  0  0  0  0  0  0  0  0  0
   45.6900  -13.0510   99.5360 O   0  0  0  0  0  0  0  0  0  0  0  0
   47.9200  -13.8350   99.0600 C   0  0  0  0  0  0  0  0  0  0  0  0
   45.7550  -15.9900   99.6000 C   0  0  0  0  0  0  0  0  0  0  0  0
   45.7020  -17.3910   99.5720 N   0  0  0  0  0  0  0  0  0  0  0  0
   45.6380  -18.2700  100.7660 C   0  0  0  0  0  0  0  0  0  0  0  0
   45.6350  -19.8020  100.4610 C   0  0  0  0  0  0  0  0  0  0  0  0
   46.6910  -20.1770   99.4060 C   0  0  0  0  0  0  0  0  0  0  0  0
   45.8780  -20.6200  101.7260 C   0  0  0  0  0  0  0  0  0  0  0  0
   45.7340  -15.4250  100.7060 O   0  0  0  0  0  0  0  0  0  0  0  0
   41.6130  -13.3750  100.8280 O   0  0  0  0  0  0  0  0  0  0  0  0
   38.9940  -11.4310   99.4020 C   0  0  0  0  0  0  0  0  0  0  0  0
   38.3370  -10.1930   99.3090 C   0  0  0  0  0  0  0  0  0  0  0  0
   36.8980  -10.1210   98.7960 C   0  0  0  0  0  0  0  0  0  0  0  0
   36.4460  -10.9610   97.7670 N   0  0  0  0  0  0  0  0  0  0  0  0
   35.1470  -11.0960   97.0750 C   0  0  0  0  0  0  0  0  0  0  0  0
   34.7360  -12.5810   97.0770 C   0  0  0  0  0  0  0  0  0  0  0  0
   35.2600  -10.6270   95.6140 C   0  0  0  0  0  0  0  0  0  0  0  0
   36.0470  -11.3460   94.7010 C   0  0  0  0  0  0  0  0  0  0  0  0
   36.1750  -10.9430   93.3670 C   0  0  0  0  0  0  0  0  0  0  0  0
   35.5280   -9.8020   92.9150 C   0  0  0  0  0  0  0  0  0  0  0  0
   34.7540   -9.0710   93.8050 C   0  0  0  0  0  0  0  0  0  0  0  0
   34.6330   -9.4850   95.1280 C   0  0  0  0  0  0  0  0  0  0  0  0
   36.0870   -9.3100   99.2800 O   0  0  0  0  0  0  0  0  0  0  0  0
   39.1070   -9.0720   99.6580 C   0  0  0  0  0  0  0  0  0  0  0  0
  2  1  1  0
  3  2  1  0
  7  2  1  0
  4  3  2  0
  5  3  1  0
  6  3  2  0
  8  7  2  0
 49  7  1  0
  9  8  1  0
 10  9  1  0
 36  9  2  0
 11 10  1  0
 35 10  2  0
 12 11  1  0
 13 12  1  0
 20 12  1  0
 14 13  1  0
 15 14  2  0
 19 14  1  0
 16 15  1  0
 17 16  2  0
 18 17  1  0
 19 18  2  0
 21 20  1  0
 22 20  1  0
 23 22  1  0
 24 23  1  0
 25 24  1  0
 28 24  1  0
 26 25  1  0
 27 25  1  0
 29 28  1  0
 34 28  2  0
 30 29  1  0
 31 30  1  0
 32 31  1  0
 33 31  1  0
 37 36  1  0
 38 37  1  0
 49 37  2  0
 39 38  1  0
 48 38  2  0
 40 39  1  0
 41 40  1  0
 42 40  1  0
 43 42  2  0
 47 42  1  0
 44 43  1  0
 45 44  2  0
 46 45  1  0
 47 46  2  0
A    1
C01
A    2
N02
A    3
S03
A    4
O04
A    5
C05
A    6
O06
A    7
C07
A    8
C08
A    9
C09
A   10
C10
A   11
N11
A   12
C12
A   13
C13
A   14
C14
A   15
C15
A   16
C16
A   17
C17
A   18
C18
A   19
C19
A   20
C20
A   21
O21
A   22
C22
A   23
N23
A   24
C24
A   25
C25
A   26
O26
A   27
C27
A   28
C28
A   29
N29
A   30
C30
A   31
C31
A   32
C32
A   33
C33
A   34
O34
A   35
O35
A   36
C36
A   37
C37
A   38
C38
A   39
N39
A   40
C40
A   41
C41
A   42
C42
A   43
C43
A   44
C44
A   45
C45
A   46
C46
A   47
C47
A   48
O48
A   49
C49
M  END
>  <Id>  (52) 
5DQC_5E7_C_401

>  <ChainId>  (52) 
C

>  <AsymId>  (52) 
F

>  <SeqNum>  (52) 
401

>  <Name>  (52) 
N-[(2S,3R)-3-hydroxy-4-({(2S,3S)-3-hydroxy-1-[(2-methylpropyl)amino]-1-oxobutan-2-yl}amino)-1-phenylbutan-2-yl]-5-[methyl(methylsulfonyl)amino]-N'-[(1R)-1-phenylethyl]benzene-1,3-dicarboxamide

>  <SystematicName>  (52) 
5-[methyl(methylsulfonyl)amino]-N3-[(2S,3R)-4-[[(2S,3S)-1-(2-methylpropylamino)-3-oxidanyl-1-oxidanylidene-butan-2-yl]amino]-3-oxidanyl-1-phenyl-butan-2-yl]-N1-[(1R)-1-phenylethyl]benzene-1,3-dicarboxamide

>  <Synonyms>  (52) 


>  <Type>  (52) 
NON-POLYMER

>  <Formula>  (52) 
C36 H49 N5 O7 S

>  <ObservedFormula>  (52) 
C36 S N5 O7

>  <MolecularWeight>  (52) 
695.869

>  <ModifiedDate>  (52) 
2016-02-12

>  <Parent>  (52) 


>  <OneLetterCode>  (52) 


>  <SubcomponentList>  (52) 


>  <AmbiguousFlag>  (52) 
N

>  <InsertionCode>  (52) 


>  <InstanceId>  (52) 
5DQC_5E7_C_401

>  <ChemCompId>  (52) 
5E7

>  <PdbId>  (52) 
5DQC

>  <ResidueNumber>  (52) 
401

>  <InChI>  (52) 
InChI=1S/C36H49N5O7S/c1-23(2)21-38-36(46)33(25(4)42)37-22-32(43)31(17-26-13-9-7-10-14-26)40-35(45)29-18-28(19-30(20-29)41(5)49(6,47)48)34(44)39-24(3)27-15-11-8-12-16-27/h7-16,18-20,23-25,31-33,37,42-43H,17,21-22H2,1-6H3,(H,38,46)(H,39,44)(H,40,45)/t24-,25+,31+,32-,33+/m1/s1

>  <InChIKey>  (52) 
ZIEVAMMZKBNDFB-AAZBAGLXSA-N

>  <SMILES>  (52) 
C[C@H](c1ccccc1)NC(=O)c2cc(cc(c2)N(C)S(=O)(=O)C)C(=O)N[C@@H](Cc3ccccc3)[C@@H](CN[C@@H]([C@H](C)O)C(=O)NCC(C)C)O

>  <MissingHeavyAtoms>  (52) 
0

>  <Model>  (52) 
1

>  <AltIds>  (52) 


>  <pKI>  (52) 
7.34

>  <ChemblID>  (52) 
-

>  <standardized_canonical_smiles>  (52) 
CC(C)CNC(=O)[C@@H](NC[C@@H](O)[C@H](Cc1ccccc1)NC(=O)c1cc(C(=O)N[C@H](C)c2ccccc2)cc(N(C)S(C)(=O)=O)c1)[C@H](C)O

$$$$
5HU0_66H_B_502
     RDKit          3D

 28 31  0  0  0  0  0  0  0  0999 V2000
   21.8530   34.7400   56.4810 C   0  0  0  0  0  0  0  0  0  0  0  0
   21.6500   33.6400   57.4890 C   0  0  0  0  0  0  0  0  0  0  0  0
   21.1980   34.2240   58.6680 N   0  0  0  0  0  0  0  0  0  0  0  0
   21.1430   35.5880   58.5590 C   0  0  0  0  0  0  0  0  0  0  0  0
   21.6210   35.9120   57.3310 N   0  0  0  0  0  0  0  0  0  0  0  0
   20.6590   33.4340   59.7650 C   0  0  0  0  0  0  0  0  0  0  0  0
   20.7530   34.6270   55.4640 C   0  0  0  0  0  0  0  0  0  0  0  0
   23.2710   34.8370   55.9330 C   0  0  0  0  0  0  0  0  0  0  0  0
   23.7090   36.0300   55.3860 C   0  0  0  0  0  0  0  0  0  0  0  0
   24.9930   36.1970   54.9090 C   0  0  0  0  0  0  0  0  0  0  0  0
   25.8780   35.1430   54.9870 C   0  0  0  0  0  0  0  0  0  0  0  0
   25.4710   33.9350   55.5250 C   0  0  0  0  0  0  0  0  0  0  0  0
   24.1710   33.7870   55.9830 C   0  0  0  0  0  0  0  0  0  0  0  0
   19.4600   34.9570   55.8200 C   0  0  0  0  0  0  0  0  0  0  0  0
   18.4120   34.8780   54.9340 C   0  0  0  0  0  0  0  0  0  0  0  0
   18.6600   34.4860   53.6280 C   0  0  0  0  0  0  0  0  0  0  0  0
   19.9480   34.1430   53.2520 C   0  0  0  0  0  0  0  0  0  0  0  0
   20.9850   34.2170   54.1620 C   0  0  0  0  0  0  0  0  0  0  0  0
   20.7310   36.4140   59.4780 N   0  0  0  0  0  0  0  0  0  0  0  0
   21.8430   32.4570   57.2510 O   0  0  0  0  0  0  0  0  0  0  0  0
   17.1540   35.2590   55.4250 N   0  0  0  0  0  0  0  0  0  0  0  0
   15.9220   34.9030   54.8960 C   0  0  0  0  0  0  0  0  0  0  0  0
   15.7680   34.2980   53.8470 O   0  0  0  0  0  0  0  0  0  0  0  0
   14.8080   35.2500   55.7320 C   0  0  0  0  0  0  0  0  0  0  0  0
   15.0000   36.1190   56.7600 O   0  0  0  0  0  0  0  0  0  0  0  0
   13.8050   36.2770   57.4050 C   0  0  0  0  0  0  0  0  0  0  0  0
   12.8400   35.5140   56.7870 C   0  0  0  0  0  0  0  0  0  0  0  0
   13.4830   34.8480   55.7100 C   0  0  0  0  0  0  0  0  0  0  0  0
  2  1  1  0
  5  1  1  0
  7  1  1  0
  8  1  1  0
  3  2  1  0
 20  2  2  0
  4  3  1  0
  6  3  1  0
  5  4  1  0
 19  4  2  0
 14  7  2  0
 18  7  1  0
  9  8  2  0
 13  8  1  0
 10  9  1  0
 11 10  2  0
 12 11  1  0
 13 12  2  0
 15 14  1  0
 16 15  2  0
 21 15  1  0
 17 16  1  0
 18 17  2  0
 22 21  1  0
 23 22  2  0
 24 22  1  0
 25 24  1  0
 28 24  2  0
 26 25  1  0
 27 26  2  0
 28 27  1  0
A    1
C1
A    2
C2
A    3
N3
A    4
C4
A    5
N5
A    6
C7
A    7
C9
A    8
C10
A    9
C11
A   10
C12
A   11
C13
A   12
C14
A   13
C15
A   14
C16
A   15
C17
A   16
C18
A   17
C19
A   18
C20
A   19
N6
A   20
O8
A   21
N21
A   22
C22
A   23
O23
A   24
C24
A   25
O25
A   26
C26
A   27
C27
A   28
C28
M  END
>  <Id>  (53) 
5HU0_66H_B_502

>  <ChainId>  (53) 
B

>  <AsymId>  (53) 
F

>  <SeqNum>  (53) 
502

>  <Name>  (53) 
N-{3-[(2E,4R)-2-imino-1-methyl-5-oxo-4-phenylimidazolidin-4-yl]phenyl}furan-2-carboxamide

>  <SystematicName>  (53) 
~{N}-[3-[(4~{R})-2-azanylidene-1-methyl-5-oxidanylidene-4-phenyl-imidazolidin-4-yl]phenyl]furan-2-carboxamide

>  <Synonyms>  (53) 


>  <Type>  (53) 
NON-POLYMER

>  <Formula>  (53) 
C21 H18 N4 O3

>  <ObservedFormula>  (53) 
C21 N4 O3

>  <MolecularWeight>  (53) 
374.393

>  <ModifiedDate>  (53) 
2016-11-04

>  <Parent>  (53) 


>  <OneLetterCode>  (53) 


>  <SubcomponentList>  (53) 


>  <AmbiguousFlag>  (53) 
N

>  <InsertionCode>  (53) 


>  <InstanceId>  (53) 
5HU0_66H_B_502

>  <ChemCompId>  (53) 
66H

>  <PdbId>  (53) 
5HU0

>  <ResidueNumber>  (53) 
502

>  <InChI>  (53) 
InChI=1S/C21H18N4O3/c1-25-19(27)21(24-20(25)22,14-7-3-2-4-8-14)15-9-5-10-16(13-15)23-18(26)17-11-6-12-28-17/h2-13H,1H3,(H2,22,24)(H,23,26)/t21-/m1/s1

>  <InChIKey>  (53) 
SOHROZVXKZYZIE-OAQYLSRUSA-N

>  <SMILES>  (53) 
[H]/N=C/1\N[C@](C(=O)N1C)(c2ccccc2)c3cccc(c3)NC(=O)c4ccco4

>  <MissingHeavyAtoms>  (53) 
0

>  <Model>  (53) 
1

>  <AltIds>  (53) 


>  <pKI>  (53) 
6.23

>  <ChemblID>  (53) 
-

>  <standardized_canonical_smiles>  (53) 
CN1C(=N)N[C@](c2ccccc2)(c2cccc(NC(=O)c3ccco3)c2)C1=O

$$$$
4R95_3KW_B_502
     RDKit          3D

 34 38  0  0  0  0  0  0  0  0999 V2000
   21.8640   33.5700   57.1750 C   0  0  0  0  0  0  0  0  0  0  0  0
   22.2990   34.7010   56.2720 C   0  0  0  0  0  0  0  0  0  0  0  0
   21.7410   35.8610   56.9400 N   0  0  0  0  0  0  0  0  0  0  0  0
   21.0810   35.4800   58.0660 C   0  0  0  0  0  0  0  0  0  0  0  0
   21.1620   34.1170   58.1970 N   0  0  0  0  0  0  0  0  0  0  0  0
   22.1200   32.3910   57.0130 O   0  0  0  0  0  0  0  0  0  0  0  0
   23.8230   34.8060   56.1950 C   0  0  0  0  0  0  0  0  0  0  0  0
   20.2070   34.4610   54.7710 C   0  0  0  0  0  0  0  0  0  0  0  0
   24.5230   34.7860   57.5580 C   0  0  0  0  0  0  0  0  0  0  0  0
   25.9440   35.3490   57.5660 C   0  0  0  0  0  0  0  0  0  0  0  0
   19.7530   33.4720   53.6990 C   0  0  0  0  0  0  0  0  0  0  0  0
   18.2220   33.4750   53.6060 C   0  0  0  0  0  0  0  0  0  0  0  0
   17.7030   34.8820   53.3310 C   0  0  0  0  0  0  0  0  0  0  0  0
   18.1030   35.7820   54.4800 C   0  0  0  0  0  0  0  0  0  0  0  0
   19.6310   35.8380   54.5020 C   0  0  0  0  0  0  0  0  0  0  0  0
   26.3410   35.5170   59.0200 C   0  0  0  0  0  0  0  0  0  0  0  0
   27.7830   35.9890   59.1870 C   0  0  0  0  0  0  0  0  0  0  0  0
   28.7670   35.0390   58.5250 C   0  0  0  0  0  0  0  0  0  0  0  0
   28.4050   34.7970   57.0600 C   0  0  0  0  0  0  0  0  0  0  0  0
   26.9320   34.4580   56.8330 C   0  0  0  0  0  0  0  0  0  0  0  0
   20.4760   36.2480   58.9010 N   0  0  0  0  0  0  0  0  0  0  0  0
   17.8400   32.7170   52.4390 N   0  0  0  0  0  0  0  0  0  0  0  0
   21.7300   34.5450   54.8630 C   0  0  0  0  0  0  0  0  0  0  0  0
   20.6580   33.3240   59.3170 C   0  0  0  0  0  0  0  0  0  0  0  0
   17.3250   31.4330   52.6600 C   0  0  0  0  0  0  0  0  0  0  0  0
   17.4370   30.7860   53.8760 C   0  0  0  0  0  0  0  0  0  0  0  0
   16.9170   29.5180   54.0150 C   0  0  0  0  0  0  0  0  0  0  0  0
   16.7290   30.8680   51.6050 N   0  0  0  0  0  0  0  0  0  0  0  0
   16.2160   29.6400   51.7360 C   0  0  0  0  0  0  0  0  0  0  0  0
   16.2960   28.9380   52.9290 C   0  0  0  0  0  0  0  0  0  0  0  0
   15.7710   27.6690   53.0510 C   0  0  0  0  0  0  0  0  0  0  0  0
   15.1480   27.0880   51.9650 C   0  0  0  0  0  0  0  0  0  0  0  0
   15.0530   27.7730   50.7690 C   0  0  0  0  0  0  0  0  0  0  0  0
   15.5890   29.0390   50.6640 C   0  0  0  0  0  0  0  0  0  0  0  0
  2  1  1  0
  5  1  1  0
  6  1  2  0
  3  2  1  0
  7  2  1  0
 23  2  1  0
  4  3  1  0
  5  4  1  0
 21  4  2  0
 24  5  1  0
  9  7  1  0
 11  8  1  0
 15  8  1  0
 23  8  1  0
 10  9  1  0
 16 10  1  0
 20 10  1  0
 12 11  1  0
 13 12  1  0
 22 12  1  0
 14 13  1  0
 15 14  1  0
 17 16  1  0
 18 17  1  0
 19 18  1  0
 20 19  1  0
 25 22  1  0
 26 25  2  0
 28 25  1  0
 27 26  1  0
 30 27  2  0
 29 28  2  0
 30 29  1  0
 34 29  1  0
 31 30  1  0
 32 31  2  0
 33 32  1  0
 34 33  2  0
A    1
C1
A    2
C2
A    3
N3
A    4
C4
A    5
N5
A    6
O6
A    7
C7
A    8
C8
A    9
C9
A   10
C10
A   11
C11
A   12
C12
A   13
C13
A   14
C14
A   15
C15
A   16
C16
A   17
C17
A   18
C18
A   19
C19
A   20
C20
A   21
N21
A   22
N22
A   23
C23
A   24
C24
A   25
C25
A   26
C26
A   27
C27
A   28
N28
A   29
C29
A   30
C30
A   31
C31
A   32
C32
A   33
C33
A   34
C34
M  END
>  <Id>  (54) 
4R95_3KW_B_502

>  <ChainId>  (54) 
B

>  <AsymId>  (54) 
G

>  <SeqNum>  (54) 
502

>  <Name>  (54) 
(2E,5R)-5-(2-cyclohexylethyl)-2-imino-3-methyl-5-{[(1S,3R)-3-(quinolin-2-ylamino)cyclohexyl]methyl}imidazolidin-4-one

>  <SystematicName>  (54) 
(5R)-2-azanylidene-5-(2-cyclohexylethyl)-3-methyl-5-[[(1S,3R)-3-(quinolin-2-ylamino)cyclohexyl]methyl]imidazolidin-4-one

>  <Synonyms>  (54) 


>  <Type>  (54) 
NON-POLYMER

>  <Formula>  (54) 
C28 H39 N5 O

>  <ObservedFormula>  (54) 
C28 N5 O

>  <MolecularWeight>  (54) 
461.642

>  <ModifiedDate>  (54) 
2014-10-31

>  <Parent>  (54) 


>  <OneLetterCode>  (54) 


>  <SubcomponentList>  (54) 


>  <AmbiguousFlag>  (54) 
N

>  <InsertionCode>  (54) 


>  <InstanceId>  (54) 
4R95_3KW_B_502

>  <ChemCompId>  (54) 
3KW

>  <PdbId>  (54) 
4R95

>  <ResidueNumber>  (54) 
502

>  <InChI>  (54) 
InChI=1S/C28H39N5O/c1-33-26(34)28(32-27(33)29,17-16-20-8-3-2-4-9-20)19-21-10-7-12-23(18-21)30-25-15-14-22-11-5-6-13-24(22)31-25/h5-6,11,13-15,20-21,23H,2-4,7-10,12,16-19H2,1H3,(H2,29,32)(H,30,31)/t21-,23+,28+/m0/s1

>  <InChIKey>  (54) 
XBQKWFZOPAEITA-TWLCBMPQSA-N

>  <SMILES>  (54) 
[H]/N=C/1\N[C@](C(=O)N1C)(CCC2CCCCC2)C[C@H]3CCC[C@H](C3)Nc4ccc5ccccc5n4

>  <MissingHeavyAtoms>  (54) 
0

>  <Model>  (54) 
1

>  <AltIds>  (54) 


>  <pKI>  (54) 
7.66

>  <ChemblID>  (54) 
-

>  <standardized_canonical_smiles>  (54) 
CN1C(=N)N[C@](CCC2CCCCC2)(C[C@H]2CCC[C@@H](Nc3ccc4ccccc4n3)C2)C1=O

$$$$
6EJ3_B7T_A_501
     RDKit          3D

 28 32  0  0  0  0  0  0  0  0999 V2000
  -21.7250  -39.4000   -8.2570 C   0  0  0  0  0  0  0  0  0  0  0  0
  -21.1710  -38.6880   -9.3040 C   0  0  0  0  0  0  0  0  0  0  0  0
  -19.5730  -40.1130   -7.5390 C   0  0  0  0  0  0  0  0  0  0  0  0
  -20.9450  -40.1180   -7.3610 C   0  0  0  0  0  0  0  0  0  0  0  0
  -21.5310  -40.9230   -6.3040 C   0  0  0  0  0  0  0  0  0  0  0  0
  -19.8040  -38.7090   -9.4650 C   0  0  0  0  0  0  0  0  0  0  0  0
  -19.0160  -39.4110   -8.5940 C   0  0  0  0  0  0  0  0  0  0  0  0
  -21.4160  -42.0160   -4.1680 C   0  0  0  0  0  0  0  0  0  0  0  0
  -16.0280  -40.0750   -7.5560 C   0  0  0  0  0  0  0  0  0  0  0  0
  -19.0050  -38.0340  -10.5170 C   0  0  0  0  0  0  0  0  0  0  0  0
  -16.2220  -37.0150  -11.9260 C   0  0  0  0  0  0  0  0  0  0  0  0
  -17.0690  -35.5520  -10.0410 C   0  0  0  0  0  0  0  0  0  0  0  0
  -16.5380  -38.2630  -11.0950 C   0  0  0  0  0  0  0  0  0  0  0  0
  -15.9650  -35.7720  -11.0710 C   0  0  0  0  0  0  0  0  0  0  0  0
  -17.5650  -39.2880   -8.9510 C   0  0  0  0  0  0  0  0  0  0  0  0
  -17.5700  -38.1000   -9.9560 C   0  0  0  0  0  0  0  0  0  0  0  0
  -20.7320  -42.2770   -2.8740 C   0  0  0  0  0  0  0  0  0  0  0  0
  -16.7450  -39.0200   -7.7670 N   0  0  0  0  0  0  0  0  0  0  0  0
  -15.1190  -40.2570   -6.5310 N   0  0  0  0  0  0  0  0  0  0  0  0
  -15.9830  -34.6550  -11.9520 O   0  0  0  0  0  0  0  0  0  0  0  0
  -20.8970  -41.1300   -5.0910 C   0  0  0  0  0  0  0  0  0  0  0  0
  -22.7060  -41.6280   -6.5000 C   0  0  0  0  0  0  0  0  0  0  0  0
  -22.6050  -42.6450   -4.4710 C   0  0  0  0  0  0  0  0  0  0  0  0
  -17.2840  -36.7940   -9.1850 C   0  0  0  0  0  0  0  0  0  0  0  0
  -17.0530  -40.6420   -9.4570 C   0  0  0  0  0  0  0  0  0  0  0  0
  -14.9010  -33.7630  -11.7110 C   0  0  0  0  0  0  0  0  0  0  0  0
  -23.2750  -42.4590   -5.6140 N   0  0  0  0  0  0  0  0  0  0  0  0
  -16.1730  -41.1160   -8.4310 O   0  0  0  0  0  0  0  0  0  0  0  0
  2  1  2  0
  4  1  1  0
  6  2  1  0
  4  3  2  0
  7  3  1  0
  5  4  1  0
 21  5  1  0
 22  5  2  0
  7  6  2  0
 10  6  1  0
 15  7  1  0
 17  8  1  0
 21  8  2  0
 23  8  1  0
 18  9  2  0
 19  9  1  0
 28  9  1  0
 16 10  1  0
 13 11  1  0
 14 11  1  0
 14 12  1  0
 24 12  1  0
 16 13  1  0
 20 14  1  0
 16 15  1  0
 18 15  1  0
 25 15  1  0
 24 16  1  0
 26 20  1  0
 27 22  1  0
 27 23  2  0
 28 25  1  0
A    1
C1
A    2
C2
A    3
C3
A    4
C7
A    5
C8
A    6
C9
A    7
C10
A    8
C11
A    9
C12
A   10
C13
A   11
C14
A   12
C15
A   13
C16
A   14
C19
A   15
C20
A   16
C21
A   17
C22
A   18
N25
A   19
N26
A   20
O28
A   21
C4
A   22
C5
A   23
C6
A   24
C17
A   25
C18
A   26
C23
A   27
N24
A   28
O27
M  END
>  <Id>  (55) 
6EJ3_B7T_A_501

>  <ChainId>  (55) 
A

>  <AsymId>  (55) 
B

>  <SeqNum>  (55) 
501

>  <Name>  (55) 
(1r,4r)-4-methoxy-6'-(5-methyl-3-pyridinyl)-3'H-dispiro[cyclohexane-1,2'-indene-1',4''-[1,3]oxazol]-2''-amine

>  <SystematicName>  (55) 
null

>  <Synonyms>  (55) 


>  <Type>  (55) 
NON-POLYMER

>  <Formula>  (55) 
C23 H27 N3 O2

>  <ObservedFormula>  (55) 
C23 N3 O2

>  <MolecularWeight>  (55) 
377.479

>  <ModifiedDate>  (55) 
2018-04-13

>  <Parent>  (55) 


>  <OneLetterCode>  (55) 


>  <SubcomponentList>  (55) 


>  <AmbiguousFlag>  (55) 
N

>  <InsertionCode>  (55) 


>  <InstanceId>  (55) 
6EJ3_B7T_A_501

>  <ChemCompId>  (55) 
B7T

>  <PdbId>  (55) 
6EJ3

>  <ResidueNumber>  (55) 
501

>  <InChI>  (55) 
InChI=1S/C23H27N3O2/c1-15-9-18(13-25-12-15)16-3-4-17-11-22(7-5-19(27-2)6-8-22)23(20(17)10-16)14-28-21(24)26-23/h3-4,9-10,12-13,19H,5-8,11,14H2,1-2H3,(H2,24,26)/t19-,22-,23-/m0/s1

>  <InChIKey>  (55) 
XMEKMASQQBIQCX-VJBMBRPKSA-N

>  <SMILES>  (55) 
Cc1cc(cnc1)c2ccc3c(c2)[C@@]4(COC(=N4)N)C5(C3)CCC(CC5)OC

>  <MissingHeavyAtoms>  (55) 
0

>  <Model>  (55) 
1

>  <AltIds>  (55) 


>  <pKI>  (55) 
5.93

>  <ChemblID>  (55) 
-

>  <standardized_canonical_smiles>  (55) 
CO[C@H]1CC[C@]2(CC1)Cc1ccc(-c3cncc(C)c3)cc1[C@@]21COC(N)=N1

$$$$
6EJ2_B7E_A_901
     RDKit          3D

 28 32  0  0  0  0  0  0  0  0999 V2000
  -15.1560  -32.8610  -11.6810 C   0  0  0  0  0  0  0  0  0  0  0  0
  -16.2090  -34.9720  -11.0180 C   0  0  0  0  0  0  0  0  0  0  0  0
  -17.6330  -37.3460   -9.8130 C   0  0  0  0  0  0  0  0  0  0  0  0
  -16.5190  -37.4990  -10.8740 C   0  0  0  0  0  0  0  0  0  0  0  0
  -16.3570  -36.2830  -11.8170 C   0  0  0  0  0  0  0  0  0  0  0  0
  -15.1250  -36.5280  -12.7070 C   0  0  0  0  0  0  0  0  0  0  0  0
  -19.0410  -37.4580  -10.4720 C   0  0  0  0  0  0  0  0  0  0  0  0
  -19.9420  -38.0220   -9.3810 C   0  0  0  0  0  0  0  0  0  0  0  0
  -21.3360  -37.9960   -9.2540 C   0  0  0  0  0  0  0  0  0  0  0  0
  -21.9550  -38.5920   -8.1580 C   0  0  0  0  0  0  0  0  0  0  0  0
  -21.1740  -39.2040   -7.1550 C   0  0  0  0  0  0  0  0  0  0  0  0
  -17.6970  -38.5280   -8.7970 C   0  0  0  0  0  0  0  0  0  0  0  0
  -17.1810  -39.9070   -9.2880 C   0  0  0  0  0  0  0  0  0  0  0  0
  -16.2460  -39.3730   -7.2910 C   0  0  0  0  0  0  0  0  0  0  0  0
  -16.8790  -38.2910   -7.5990 N   0  0  0  0  0  0  0  0  0  0  0  0
  -23.4890  -41.3260   -5.1160 N   0  0  0  0  0  0  0  0  0  0  0  0
  -23.0080  -40.6430   -6.1540 C   0  0  0  0  0  0  0  0  0  0  0  0
  -16.1820  -33.8410  -11.9160 O   0  0  0  0  0  0  0  0  0  0  0  0
  -17.3830  -34.7710  -10.0360 C   0  0  0  0  0  0  0  0  0  0  0  0
  -17.5240  -35.9800   -9.0880 C   0  0  0  0  0  0  0  0  0  0  0  0
  -19.7710  -39.2380   -7.3000 C   0  0  0  0  0  0  0  0  0  0  0  0
  -19.1550  -38.6510   -8.4080 C   0  0  0  0  0  0  0  0  0  0  0  0
  -16.4590  -40.4000   -8.1290 O   0  0  0  0  0  0  0  0  0  0  0  0
  -15.4240  -39.4470   -6.2010 N   0  0  0  0  0  0  0  0  0  0  0  0
  -21.8080  -39.9170   -6.0060 C   0  0  0  0  0  0  0  0  0  0  0  0
  -21.1620  -40.0180   -4.7590 C   0  0  0  0  0  0  0  0  0  0  0  0
  -21.6970  -40.7350   -3.7770 N   0  0  0  0  0  0  0  0  0  0  0  0
  -22.8510  -41.3650   -3.9520 C   0  0  0  0  0  0  0  0  0  0  0  0
 18  1  1  0
  5  2  1  0
 18  2  1  0
 19  2  1  0
  4  3  1  0
  7  3  1  0
 12  3  1  0
 20  3  1  0
  5  4  1  0
  6  5  1  0
  8  7  1  0
  9  8  1  0
 22  8  2  0
 10  9  2  0
 11 10  1  0
 21 11  2  0
 25 11  1  0
 13 12  1  0
 15 12  1  0
 22 12  1  0
 23 13  1  0
 15 14  2  0
 23 14  1  0
 24 14  1  0
 17 16  2  0
 28 16  1  0
 25 17  1  0
 20 19  1  0
 22 21  1  0
 26 25  2  0
 27 26  1  0
 28 27  2  0
A    1
C1
A    2
C3
A    3
C7
A    4
C8
A    5
C9
A    6
C11
A    7
C12
A    8
C13
A    9
C14
A   10
C15
A   11
C16
A   12
C19
A   13
C20
A   14
C22
A   15
N23
A   16
N29
A   17
C30
A   18
O2
A   19
C5
A   20
C6
A   21
C17
A   22
C18
A   23
O21
A   24
N24
A   25
C25
A   26
C26
A   27
N27
A   28
C28
M  END
>  <Id>  (56) 
6EJ2_B7E_A_901

>  <ChainId>  (56) 
A

>  <AsymId>  (56) 
B

>  <SeqNum>  (56) 
901

>  <Name>  (56) 
compound 28

>  <SystematicName>  (56) 
null

>  <Synonyms>  (56) 


>  <Type>  (56) 
NON-POLYMER

>  <Formula>  (56) 
C22 H26 N4 O2

>  <ObservedFormula>  (56) 
C22 N4 O2

>  <MolecularWeight>  (56) 
378.467

>  <ModifiedDate>  (56) 
2018-04-13

>  <Parent>  (56) 


>  <OneLetterCode>  (56) 


>  <SubcomponentList>  (56) 


>  <AmbiguousFlag>  (56) 
N

>  <InsertionCode>  (56) 


>  <InstanceId>  (56) 
6EJ2_B7E_A_901

>  <ChemCompId>  (56) 
B7E

>  <PdbId>  (56) 
6EJ2

>  <ResidueNumber>  (56) 
901

>  <InChI>  (56) 
InChI=1S/C22H26N4O2/c1-14-8-21(6-5-19(14)27-2)9-16-4-3-15(17-10-24-13-25-11-17)7-18(16)22(21)12-28-20(23)26-22/h3-4,7,10-11,13-14,19H,5-6,8-9,12H2,1-2H3,(H2,23,26)/t14-,19-,21-,22-/m0/s1

>  <InChIKey>  (56) 
LNZBKHMXPFCMOB-GLYDZZHWSA-N

>  <SMILES>  (56) 
C[C@H]1C[C@@]2(CC[C@@H]1OC)Cc3ccc(cc3[C@@]24COC(=N4)N)c5cncnc5

>  <MissingHeavyAtoms>  (56) 
0

>  <Model>  (56) 
1

>  <AltIds>  (56) 


>  <pKI>  (56) 
7.8

>  <ChemblID>  (56) 
-

>  <standardized_canonical_smiles>  (56) 
CO[C@H]1CC[C@@]2(Cc3ccc(-c4cncnc4)cc3[C@@]23COC(N)=N3)C[C@@H]1C

$$$$
4B05_32D_A_1391
     RDKit          3D

 32 36  0  0  0  0  0  0  0  0999 V2000
    8.1610    3.3190  -18.3450 C   0  0  0  0  0  0  0  0  0  0  0  0
    7.6400    2.9580  -19.5770 C   0  0  0  0  0  0  0  0  0  0  0  0
    6.2770    3.0760  -19.7920 C   0  0  0  0  0  0  0  0  0  0  0  0
    5.4800    3.5280  -18.7840 C   0  0  0  0  0  0  0  0  0  0  0  0
    5.9770    3.9060  -17.5480 C   0  0  0  0  0  0  0  0  0  0  0  0
    7.3400    3.7970  -17.3350 C   0  0  0  0  0  0  0  0  0  0  0  0
    5.2130    4.4070  -16.5580 F   0  0  0  0  0  0  0  0  0  0  0  0
    4.1170    3.5120  -19.3240 C   0  0  0  0  0  0  0  0  0  0  0  0
    4.0820    3.0720  -20.5470 N   0  0  0  0  0  0  0  0  0  0  0  0
    5.4540    2.7750  -21.0260 C   0  0  0  0  0  0  0  0  0  0  0  0
    5.6710    1.3070  -21.3290 C   0  0  0  0  0  0  0  0  0  0  0  0
    6.5360    0.9060  -22.3370 C   0  0  0  0  0  0  0  0  0  0  0  0
    6.7260   -0.4340  -22.6020 C   0  0  0  0  0  0  0  0  0  0  0  0
    6.0860   -1.3950  -21.8400 C   0  0  0  0  0  0  0  0  0  0  0  0
    5.2340   -1.0330  -20.8130 C   0  0  0  0  0  0  0  0  0  0  0  0
    5.0460    0.3230  -20.5780 C   0  0  0  0  0  0  0  0  0  0  0  0
    4.6280   -2.0420  -19.9520 C   0  0  0  0  0  0  0  0  0  0  0  0
    5.3190   -3.1660  -19.5380 C   0  0  0  0  0  0  0  0  0  0  0  0
    4.8560   -4.0740  -18.6700 N   0  0  0  0  0  0  0  0  0  0  0  0
    3.6220   -3.8310  -18.2040 C   0  0  0  0  0  0  0  0  0  0  0  0
    2.8260   -2.8090  -18.5430 N   0  0  0  0  0  0  0  0  0  0  0  0
    3.3640   -1.9370  -19.4080 C   0  0  0  0  0  0  0  0  0  0  0  0
    5.7520    3.6940  -22.2230 C   0  0  0  0  0  0  0  0  0  0  0  0
    6.9300    4.4150  -22.1970 C   0  0  0  0  0  0  0  0  0  0  0  0
    7.2710    5.2430  -23.2350 C   0  0  0  0  0  0  0  0  0  0  0  0
    6.5160    5.4010  -24.3230 N   0  0  0  0  0  0  0  0  0  0  0  0
    5.3590    4.7380  -24.3740 C   0  0  0  0  0  0  0  0  0  0  0  0
    4.9460    3.8690  -23.3600 C   0  0  0  0  0  0  0  0  0  0  0  0
    4.5960    4.9460  -25.6540 C   0  0  0  0  0  0  0  0  0  0  0  0
    3.4530    5.7240  -25.6200 F   0  0  0  0  0  0  0  0  0  0  0  0
    4.3210    3.7920  -26.3130 F   0  0  0  0  0  0  0  0  0  0  0  0
    3.0330    3.8580  -18.5610 N   0  0  0  0  0  0  0  0  0  0  0  0
  2  1  2  0
  6  1  1  0
  3  2  1  0
  4  3  2  0
 10  3  1  0
  5  4  1  0
  8  4  1  0
  6  5  2  0
  7  5  1  0
  9  8  2  0
 32  8  1  0
 10  9  1  0
 11 10  1  0
 23 10  1  0
 12 11  2  0
 16 11  1  0
 13 12  1  0
 14 13  2  0
 15 14  1  0
 16 15  2  0
 17 15  1  0
 18 17  2  0
 22 17  1  0
 19 18  1  0
 20 19  2  0
 21 20  1  0
 22 21  2  0
 24 23  2  0
 28 23  1  0
 25 24  1  0
 26 25  2  0
 27 26  1  0
 28 27  2  0
 29 27  1  0
 30 29  1  0
 31 29  1  0
A    1
C1
A    2
C2
A    3
C3
A    4
C4
A    5
C5
A    6
C6
A    7
F7
A    8
C8
A    9
N9
A   10
C10
A   11
C11
A   12
C12
A   13
C13
A   14
C14
A   15
C15
A   16
C16
A   17
C17
A   18
C18
A   19
N19
A   20
C20
A   21
N21
A   22
C22
A   23
C24
A   24
C25
A   25
C26
A   26
N27
A   27
C28
A   28
C29
A   29
C30
A   30
F31
A   31
F32
A   32
N34
M  END
>  <Id>  (57) 
4B05_32D_A_1391

>  <ChainId>  (57) 
A

>  <AsymId>  (57) 
H

>  <SeqNum>  (57) 
1391

>  <Name>  (57) 
(1S)-1-[2-(difluoromethyl)pyridin-4-yl]-4-fluoro-1-(3-pyrimidin-5-ylphenyl)-1H-isoindol-3-amine

>  <SystematicName>  (57) 
(3S)-3-[2-[bis(fluoranyl)methyl]pyridin-4-yl]-7-fluoranyl-3-(3-pyrimidin-5-ylphenyl)isoindol-1-amine

>  <Synonyms>  (57) 


>  <Type>  (57) 
non-polymer

>  <Formula>  (57) 
C24 H16 F3 N5

>  <ObservedFormula>  (57) 
C24 F3 N5

>  <MolecularWeight>  (57) 
431.413

>  <ModifiedDate>  (57) 
2014-09-05

>  <Parent>  (57) 


>  <OneLetterCode>  (57) 


>  <SubcomponentList>  (57) 


>  <AmbiguousFlag>  (57) 
N

>  <InsertionCode>  (57) 


>  <InstanceId>  (57) 
4B05_32D_A_1391

>  <ChemCompId>  (57) 
32D

>  <PdbId>  (57) 
4B05

>  <ResidueNumber>  (57) 
1391

>  <InChI>  (57) 
InChI=1S/C24H16F3N5/c25-19-6-2-5-18-21(19)23(28)32-24(18,17-7-8-31-20(10-17)22(26)27)16-4-1-3-14(9-16)15-11-29-13-30-12-15/h1-13,22H,(H2,28,32)/t24-/m0/s1

>  <InChIKey>  (57) 
MRXBCEQZNKUUIP-DEOSSOPVSA-N

>  <SMILES>  (57) 
c1cc(cc(c1)[C@@]2(c3cccc(c3C(=N2)N)F)c4ccnc(c4)C(F)F)c5cncnc5

>  <MissingHeavyAtoms>  (57) 
0

>  <Model>  (57) 
1

>  <AltIds>  (57) 


>  <pKI>  (57) 
7.58

>  <ChemblID>  (57) 
-

>  <standardized_canonical_smiles>  (57) 
NC1=N[C@@](c2cccc(-c3cncnc3)c2)(c2ccnc(C(F)F)c2)c2cccc(F)c21

$$$$
4DJU_0KK_B_501
     RDKit          3D

 20 22  0  0  0  0  0  0  0  0999 V2000
   21.2230   32.0720   57.1900 O   0  0  0  0  0  0  0  0  0  0  0  0
   21.1050   33.2660   57.3950 C   0  0  0  0  0  0  0  0  0  0  0  0
   21.3760   34.4150   56.4000 C   0  0  0  0  0  0  0  0  0  0  0  0
   21.0200   35.6480   57.1980 N   0  0  0  0  0  0  0  0  0  0  0  0
   20.7070   35.2750   58.4280 C   0  0  0  0  0  0  0  0  0  0  0  0
   20.7170   33.8420   58.5880 N   0  0  0  0  0  0  0  0  0  0  0  0
   20.3820   36.1270   59.4060 N   0  0  0  0  0  0  0  0  0  0  0  0
   20.3860   33.0670   59.7880 C   0  0  0  0  0  0  0  0  0  0  0  0
   22.8590   34.5450   56.0110 C   0  0  0  0  0  0  0  0  0  0  0  0
   23.3340   35.6910   55.3850 C   0  0  0  0  0  0  0  0  0  0  0  0
   24.6620   35.7880   54.9970 C   0  0  0  0  0  0  0  0  0  0  0  0
   25.5380   34.7450   55.2380 C   0  0  0  0  0  0  0  0  0  0  0  0
   25.0840   33.6060   55.8650 C   0  0  0  0  0  0  0  0  0  0  0  0
   23.7540   33.5050   56.2500 C   0  0  0  0  0  0  0  0  0  0  0  0
   20.5340   34.2070   55.1290 C   0  0  0  0  0  0  0  0  0  0  0  0
   20.6860   33.0710   54.3360 C   0  0  0  0  0  0  0  0  0  0  0  0
   19.9060   32.8870   53.2010 C   0  0  0  0  0  0  0  0  0  0  0  0
   18.9790   33.8390   52.8310 C   0  0  0  0  0  0  0  0  0  0  0  0
   18.8230   34.9720   53.6020 C   0  0  0  0  0  0  0  0  0  0  0  0
   19.5890   35.1530   54.7470 C   0  0  0  0  0  0  0  0  0  0  0  0
  2  1  2  0
  3  2  1  0
  6  2  1  0
  4  3  1  0
  9  3  1  0
 15  3  1  0
  5  4  1  0
  6  5  1  0
  7  5  2  0
  8  6  1  0
 10  9  2  0
 14  9  1  0
 11 10  1  0
 12 11  2  0
 13 12  1  0
 14 13  2  0
 16 15  2  0
 20 15  1  0
 17 16  1  0
 18 17  2  0
 19 18  1  0
 20 19  2  0
A    1
O1
A    2
C1
A    3
C2
A    4
N1
A    5
C3
A    6
N2
A    7
N3
A    8
C4
A    9
C5
A   10
C6
A   11
C7
A   12
C8
A   13
C9
A   14
C10
A   15
C11
A   16
C12
A   17
C13
A   18
C14
A   19
C15
A   20
C16
M  END
>  <Id>  (58) 
4DJU_0KK_B_501

>  <ChainId>  (58) 
B

>  <AsymId>  (58) 
E

>  <SeqNum>  (58) 
501

>  <Name>  (58) 
(2E)-2-imino-3-methyl-5,5-diphenylimidazolidin-4-one

>  <SystematicName>  (58) 
2-azanylidene-3-methyl-5,5-diphenyl-imidazolidin-4-one

>  <Synonyms>  (58) 


>  <Type>  (58) 
NON-POLYMER

>  <Formula>  (58) 
C16 H15 N3 O

>  <ObservedFormula>  (58) 
C16 N3 O

>  <MolecularWeight>  (58) 
265.31

>  <ModifiedDate>  (58) 
2012-03-16

>  <Parent>  (58) 


>  <OneLetterCode>  (58) 


>  <SubcomponentList>  (58) 


>  <AmbiguousFlag>  (58) 
N

>  <InsertionCode>  (58) 


>  <InstanceId>  (58) 
4DJU_0KK_B_501

>  <ChemCompId>  (58) 
0KK

>  <PdbId>  (58) 
4DJU

>  <ResidueNumber>  (58) 
501

>  <InChI>  (58) 
InChI=1S/C16H15N3O/c1-19-14(20)16(18-15(19)17,12-8-4-2-5-9-12)13-10-6-3-7-11-13/h2-11H,1H3,(H2,17,18)

>  <InChIKey>  (58) 
RNWLAFWLSSMCLN-UHFFFAOYSA-N

>  <SMILES>  (58) 
[H]/N=C/1\NC(C(=O)N1C)(c2ccccc2)c3ccccc3

>  <MissingHeavyAtoms>  (58) 
0

>  <Model>  (58) 
1

>  <AltIds>  (58) 


>  <pKI>  (58) 
5.44

>  <ChemblID>  (58) 
-

>  <standardized_canonical_smiles>  (58) 
CN1C(=N)NC(c2ccccc2)(c2ccccc2)C1=O

$$$$
2QMG_SC6_B_1
     RDKit          3D

 44 48  0  0  0  0  0  0  0  0999 V2000
   16.3330   29.5820   59.0240 C   0  0  0  0  0  0  0  0  0  0  0  0
   17.6150   29.1610   59.4800 C   0  0  0  0  0  0  0  0  0  0  0  0
   18.7640   29.9550   59.1680 C   0  0  0  0  0  0  0  0  0  0  0  0
   18.6340   31.1590   58.4080 C   0  0  0  0  0  0  0  0  0  0  0  0
   17.3550   31.5510   57.9730 C   0  0  0  0  0  0  0  0  0  0  0  0
   16.1950   30.7740   58.2680 C   0  0  0  0  0  0  0  0  0  0  0  0
   14.8660   31.2380   57.7900 C   0  0  0  0  0  0  0  0  0  0  0  0
   14.6620   31.4740   56.4190 N   0  0  0  0  0  0  0  0  0  0  0  0
   13.9460   31.4310   58.5900 O   0  0  0  0  0  0  0  0  0  0  0  0
   15.6180   31.3050   55.3050 C   0  0  0  0  0  0  0  0  0  0  0  0
   14.7100   30.7610   54.1930 C   0  0  0  0  0  0  0  0  0  0  0  0
   13.3310   31.3840   54.4570 C   0  0  0  0  0  0  0  0  0  0  0  0
   13.3830   31.9460   55.8920 C   0  0  0  0  0  0  0  0  0  0  0  0
   13.3630   33.4900   55.8680 C   0  0  0  0  0  0  0  0  0  0  0  0
   17.7470   27.8890   60.2830 C   0  0  0  0  0  0  0  0  0  0  0  0
   19.8250   31.9700   58.0820 C   0  0  0  0  0  0  0  0  0  0  0  0
   19.6090   33.3220   57.9290 N   0  0  0  0  0  0  0  0  0  0  0  0
   20.9460   31.4690   57.9430 O   0  0  0  0  0  0  0  0  0  0  0  0
   20.6830   34.2960   57.5870 C   0  0  0  0  0  0  0  0  0  0  0  0
   21.1210   35.1490   58.8010 C   0  0  0  0  0  0  0  0  0  0  0  0
   20.1710   35.2100   56.4340 C   0  0  0  0  0  0  0  0  0  0  0  0
   22.2060   35.9540   58.3980 O   0  0  0  0  0  0  0  0  0  0  0  0
   19.5230   34.4700   55.2840 C   0  0  0  0  0  0  0  0  0  0  0  0
   18.1800   34.7610   54.9160 C   0  0  0  0  0  0  0  0  0  0  0  0
   17.5870   34.0660   53.8420 C   0  0  0  0  0  0  0  0  0  0  0  0
   18.2800   33.0790   53.1080 C   0  0  0  0  0  0  0  0  0  0  0  0
   19.6090   32.8030   53.4860 C   0  0  0  0  0  0  0  0  0  0  0  0
   20.2400   33.4770   54.5530 C   0  0  0  0  0  0  0  0  0  0  0  0
   16.3310   34.3520   53.5110 F   0  0  0  0  0  0  0  0  0  0  0  0
   20.2920   31.8730   52.8100 F   0  0  0  0  0  0  0  0  0  0  0  0
   23.6950   33.5560   61.0030 C   0  0  0  0  0  0  0  0  0  0  0  0
   22.7950   34.2700   61.9980 C   0  0  0  0  0  0  0  0  0  0  0  0
   22.0240   35.1920   61.1490 N   0  0  0  0  0  0  0  0  0  0  0  0
   22.7590   33.3690   59.7950 C   0  0  0  0  0  0  0  0  0  0  0  0
   21.5750   34.3360   60.0400 C   0  0  0  0  0  0  0  0  0  0  0  0
   24.7660   34.4610   60.7420 O   0  0  0  0  0  0  0  0  0  0  0  0
   25.7500   34.1440   59.7890 C   0  0  0  0  0  0  0  0  0  0  0  0
   26.2680   32.8380   59.5060 C   0  0  0  0  0  0  0  0  0  0  0  0
   27.2630   32.6750   58.5130 C   0  0  0  0  0  0  0  0  0  0  0  0
   27.7480   33.8010   57.7960 C   0  0  0  0  0  0  0  0  0  0  0  0
   27.2380   35.0940   58.0740 C   0  0  0  0  0  0  0  0  0  0  0  0
   26.2450   35.2580   59.0660 C   0  0  0  0  0  0  0  0  0  0  0  0
   13.6940   35.4160   57.2390 C   0  0  0  0  0  0  0  0  0  0  0  0
   13.5980   34.0090   57.1670 O   0  0  0  0  0  0  0  0  0  0  0  0
  2  1  2  0
  6  1  1  0
  3  2  1  0
 15  2  1  0
  4  3  2  0
  5  4  1  0
 16  4  1  0
  6  5  2  0
  7  6  1  0
  8  7  1  0
  9  7  2  0
 10  8  1  0
 13  8  1  0
 11 10  1  0
 12 11  1  0
 13 12  1  0
 14 13  1  0
 44 14  1  0
 17 16  1  0
 18 16  2  0
 19 17  1  0
 20 19  1  0
 21 19  1  0
 22 20  1  0
 35 20  1  0
 23 21  1  0
 24 23  2  0
 28 23  1  0
 25 24  1  0
 26 25  2  0
 29 25  1  0
 27 26  1  0
 28 27  2  0
 30 27  1  0
 32 31  1  0
 34 31  1  0
 36 31  1  0
 33 32  1  0
 35 33  1  0
 35 34  1  0
 37 36  1  0
 38 37  2  0
 42 37  1  0
 39 38  1  0
 40 39  2  0
 41 40  1  0
 42 41  2  0
 44 43  1  0
A    1
C1
A    2
C2
A    3
C3
A    4
C4
A    5
C5
A    6
C6
A    7
C7
A    8
N1
A    9
O1
A   10
C8
A   11
C9
A   12
C10
A   13
C11
A   14
C12
A   15
C30
A   16
C14
A   17
N2
A   18
O2
A   19
C15
A   20
C16
A   21
C17
A   22
O3
A   23
C19
A   24
C21
A   25
C22
A   26
C23
A   27
C24
A   28
C25
A   29
F2
A   30
F1
A   31
C26
A   32
C18
A   33
N3
A   34
C20
A   35
C27
A   36
O4
A   37
C31
A   38
C32
A   39
C33
A   40
C34
A   41
C35
A   42
C36
A   43
C37
A   44
O5
M  END
>  <Id>  (59) 
2QMG_SC6_B_1

>  <ChainId>  (59) 
B

>  <AsymId>  (59) 
E

>  <SeqNum>  (59) 
1

>  <Name>  (59) 
N-{(1S,2R)-1-(3,5-DIFLUOROBENZYL)-2-HYDROXY-2-[(2R,4R)-4-PHENOXYPYRROLIDIN-2-YL]ETHYL}-3-{[(2R)-2-(METHOXYMETHYL)PYRROLIDIN-1-YL]CARBONYL}-5-METHYLBENZAMIDE

>  <SystematicName>  (59) 
N-[(1R,2S)-3-(3,5-difluorophenyl)-1-hydroxy-1-[(2R,4R)-4-phenoxypyrrolidin-2-yl]propan-2-yl]-3-[(2R)-2-(methoxymethyl)pyrrolidin-1-yl]carbonyl-5-methyl-benzamide

>  <Synonyms>  (59) 


>  <Type>  (59) 
NON-POLYMER

>  <Formula>  (59) 
C34 H39 F2 N3 O5

>  <ObservedFormula>  (59) 
C34 F2 N3 O5

>  <MolecularWeight>  (59) 
607.687

>  <ModifiedDate>  (59) 
2011-06-04

>  <Parent>  (59) 


>  <OneLetterCode>  (59) 


>  <SubcomponentList>  (59) 


>  <AmbiguousFlag>  (59) 


>  <InsertionCode>  (59) 


>  <InstanceId>  (59) 
2QMG_SC6_B_1

>  <ChemCompId>  (59) 
SC6

>  <PdbId>  (59) 
2QMG

>  <ResidueNumber>  (59) 
1

>  <InChI>  (59) 
InChI=1S/C34H39F2N3O5/c1-21-11-23(16-24(12-21)34(42)39-10-6-7-27(39)20-43-2)33(41)38-31(15-22-13-25(35)17-26(36)14-22)32(40)30-18-29(19-37-30)44-28-8-4-3-5-9-28/h3-5,8-9,11-14,16-17,27,29-32,37,40H,6-7,10,15,18-20H2,1-2H3,(H,38,41)/t27-,29-,30-,31+,32-/m1/s1

>  <InChIKey>  (59) 
KYHYNSQLYDXSNK-MXWGZHRFSA-N

>  <SMILES>  (59) 
Cc1cc(cc(c1)C(=O)N2CCC[C@@H]2COC)C(=O)N[C@@H](Cc3cc(cc(c3)F)F)[C@@H]([C@H]4C[C@H](CN4)Oc5ccccc5)O

>  <MissingHeavyAtoms>  (59) 
0

>  <Model>  (59) 
1

>  <AltIds>  (59) 


>  <pKI>  (59) 
9.15

>  <ChemblID>  (59) 
-

>  <standardized_canonical_smiles>  (59) 
COC[C@H]1CCCN1C(=O)c1cc(C)cc(C(=O)N[C@@H](Cc2cc(F)cc(F)c2)[C@H](O)[C@H]2C[C@@H](Oc3ccccc3)CN2)c1

$$$$
