5J8Z_6KE_A_304
     RDKit          3D

 32 34  0  0  0  0  0  0  0  0999 V2000
   -5.3080    2.3690   15.7420 C   0  0  0  0  0  0  0  0  0  0  0  0
   -3.9730    2.5140   15.4230 C   0  0  0  0  0  0  0  0  0  0  0  0
   -3.5430    3.6160   14.7130 C   0  0  0  0  0  0  0  0  0  0  0  0
   -4.4510    4.5930   14.3200 C   0  0  0  0  0  0  0  0  0  0  0  0
   -5.7940    4.4420   14.6500 C   0  0  0  0  0  0  0  0  0  0  0  0
   -6.2170    3.3340   15.3560 C   0  0  0  0  0  0  0  0  0  0  0  0
   -7.3060    0.9300   16.5450 O   0  0  0  0  0  0  0  0  0  0  0  0
   -2.7190    6.1850   13.5360 C   0  0  0  0  0  0  0  0  0  0  0  0
   -1.9230   10.2410   13.1340 C   0  0  0  0  0  0  0  0  0  0  0  0
   -1.3090   12.5670   13.1800 C   0  0  0  0  0  0  0  0  0  0  0  0
   -2.3560   12.7760   12.2140 C   0  0  0  0  0  0  0  0  0  0  0  0
   -3.0920   11.7090   11.7970 C   0  0  0  0  0  0  0  0  0  0  0  0
   -2.5940    7.5130   12.7880 C   0  0  0  0  0  0  0  0  0  0  0  0
   -1.9550    7.3150   11.4120 C   0  0  0  0  0  0  0  0  0  0  0  0
   -1.7670    5.6770   14.0830 O   0  0  0  0  0  0  0  0  0  0  0  0
   -2.6750   14.0470   11.6670 C   0  0  0  0  0  0  0  0  0  0  0  0
   -5.3120    1.0620   17.9210 O   0  0  0  0  0  0  0  0  0  0  0  0
   -5.3220   12.6540   11.1630 C   0  0  0  0  0  0  0  0  0  0  0  0
   -6.4340   12.7130   10.3300 C   0  0  0  0  0  0  0  0  0  0  0  0
   -6.4720   11.9270    9.1960 C   0  0  0  0  0  0  0  0  0  0  0  0
   -5.4180   11.0910    8.8850 C   0  0  0  0  0  0  0  0  0  0  0  0
   -4.3100   11.0450    9.7250 C   0  0  0  0  0  0  0  0  0  0  0  0
   -4.2460   11.8230   10.8750 C   0  0  0  0  0  0  0  0  0  0  0  0
   -7.8590   11.9640    8.1630 Cl  0  0  0  0  0  0  0  0  0  0  0  0
   -2.8710   10.4340   12.2500 N   0  0  0  0  0  0  0  0  0  0  0  0
   -2.9340   15.0780   11.2270 N   0  0  0  0  0  0  0  0  0  0  0  0
   -0.5870   13.4610   13.6450 O   0  0  0  0  0  0  0  0  0  0  0  0
   -1.1510   11.2600   13.5970 N   0  0  0  0  0  0  0  0  0  0  0  0
   -1.5750    8.6400   13.8070 S   0  0  0  0  0  0  0  0  0  0  0  0
   -3.9640    5.6620   13.5400 N   0  0  0  0  0  0  0  0  0  0  0  0
   -5.8780    0.9490   16.6110 S   0  0  0  0  0  0  0  0  0  0  0  0
   -5.2990   -0.3770   15.9310 N   0  0  0  0  0  0  0  0  0  0  0  0
  2  1  2  0
  6  1  1  0
 31  1  1  0
  3  2  1  0
  4  3  2  0
  5  4  1  0
 30  4  1  0
  6  5  2  0
 31  7  2  0
 13  8  1  0
 15  8  2  0
 30  8  1  0
 25  9  2  0
 28  9  1  0
 29  9  1  0
 11 10  1  0
 27 10  2  0
 28 10  1  0
 12 11  2  0
 16 11  1  0
 23 12  1  0
 25 12  1  0
 14 13  1  0
 29 13  1  0
 26 16  3  0
 31 17  2  0
 19 18  2  0
 23 18  1  0
 20 19  1  0
 21 20  2  0
 24 20  1  0
 22 21  1  0
 23 22  2  0
 32 31  1  0
A    1
C1
A    2
C2
A    3
C3
A    4
C4
A    5
C5
A    6
C6
A    7
O1
A    8
C7
A    9
C10
A   10
C11
A   11
C12
A   12
C13
A   13
C8
A   14
C9
A   15
O3
A   16
C14
A   17
O2
A   18
C16
A   19
C17
A   20
C18
A   21
C19
A   22
C20
A   23
C15
A   24
CL
A   25
N4
A   26
N5
A   27
O4
A   28
N3
A   29
S2
A   30
N2
A   31
S1
A   32
N1
M  END
>  <Id>  (1) 
5J8Z_6KE_A_304

>  <ChainId>  (1) 
A

>  <AsymId>  (1) 
E

>  <SeqNum>  (1) 
304

>  <Name>  (1) 
(2S)-2-{[4-(4-chlorophenyl)-5-cyano-6-oxo-1,6-dihydropyrimidin-2-yl]sulfanyl}-N-(4-sulfamoylphenyl)propanamide

>  <SystematicName>  (1) 
(2~{S})-2-[[4-(4-chlorophenyl)-5-cyano-6-oxidanylidene-1~{H}-pyrimidin-2-yl]sulfanyl]-~{N}-(4-sulfamoylphenyl)propanamide

>  <Synonyms>  (1) 


>  <Type>  (1) 
NON-POLYMER

>  <Formula>  (1) 
C20 H16 Cl N5 O4 S2

>  <ObservedFormula>  (1) 
C20 S2 Cl N5 O4

>  <MolecularWeight>  (1) 
489.955

>  <ModifiedDate>  (1) 
2016-06-24

>  <Parent>  (1) 


>  <OneLetterCode>  (1) 


>  <SubcomponentList>  (1) 


>  <AmbiguousFlag>  (1) 
N

>  <InsertionCode>  (1) 


>  <InstanceId>  (1) 
5J8Z_6KE_A_304

>  <ChemCompId>  (1) 
6KE

>  <PdbId>  (1) 
5J8Z

>  <ResidueNumber>  (1) 
304

>  <InChI>  (1) 
InChI=1S/C20H16ClN5O4S2/c1-11(18(27)24-14-6-8-15(9-7-14)32(23,29)30)31-20-25-17(16(10-22)19(28)26-20)12-2-4-13(21)5-3-12/h2-9,11H,1H3,(H,24,27)(H2,23,29,30)(H,25,26,28)/t11-/m0/s1

>  <InChIKey>  (1) 
JDIGFAGHWNBGPU-NSHDSACASA-N

>  <SMILES>  (1) 
C[C@@H](C(=O)Nc1ccc(cc1)S(=O)(=O)N)SC2=NC(=C(C(=O)N2)C#N)c3ccc(cc3)Cl

>  <MissingHeavyAtoms>  (1) 
0

>  <Model>  (1) 
1

>  <AltIds>  (1) 


>  <pKI>  (1) 
8.3

>  <ChemblID>  (1) 
-

>  <standardized_canonical_smiles>  (1) 
C[C@H](Sc1nc(-c2ccc(Cl)cc2)c(C#N)c(=O)[nH]1)C(=O)Nc1ccc(S(N)(=O)=O)cc1

$$$$
4K13_ETS_A_304
     RDKit          3D

 19 20  0  0  0  0  0  0  0  0999 V2000
   15.1290    3.7250   15.8110 S   0  0  0  0  0  0  0  0  0  0  0  0
   16.0630    2.4190   16.1260 C   0  0  0  0  0  0  0  0  0  0  0  0
   17.4170    2.6220   15.6180 C   0  0  0  0  0  0  0  0  0  0  0  0
   17.5040    3.9980   14.9570 C   0  0  0  0  0  0  0  0  0  0  0  0
   18.7330    4.6720   14.2490 C   0  0  0  0  0  0  0  0  0  0  0  0
   18.7090    6.1980   14.3460 C   0  0  0  0  0  0  0  0  0  0  0  0
   17.4690    6.8300   13.6780 C   0  0  0  0  0  0  0  0  0  0  0  0
   16.0060    6.2500   14.4060 S   0  0  0  0  0  0  0  0  0  0  0  0
   16.2060    4.6600   15.0450 C   0  0  0  0  0  0  0  0  0  0  0  0
   15.4820    0.9960   16.9780 S   0  0  0  0  0  0  0  0  0  0  0  0
   14.0180    1.0480   16.9640 O   0  0  0  0  0  0  0  0  0  0  0  0
   15.8350    1.0800   18.3680 O   0  0  0  0  0  0  0  0  0  0  0  0
   16.0930   -0.4050   16.2730 N   0  0  0  0  0  0  0  0  0  0  0  0
   18.6970    4.2950   12.9020 N   0  0  0  0  0  0  0  0  0  0  0  0
   17.6040    8.3920   13.7870 C   0  0  0  0  0  0  0  0  0  0  0  0
   14.9200    6.3600   13.4470 O   0  0  0  0  0  0  0  0  0  0  0  0
   15.7300    7.0880   15.5560 O   0  0  0  0  0  0  0  0  0  0  0  0
   19.9400    3.6050   12.5190 C   0  0  0  0  0  0  0  0  0  0  0  0
   19.8570    3.1170   11.0430 C   0  0  0  0  0  0  0  0  0  0  0  0
  2  1  1  0
  9  1  1  0
  3  2  2  0
 10  2  1  0
  4  3  1  0
  5  4  1  0
  9  4  2  0
  6  5  1  0
 14  5  1  0
  7  6  1  0
  8  7  1  0
 15  7  1  0
  9  8  1  0
 16  8  2  0
 17  8  2  0
 11 10  2  0
 12 10  2  0
 13 10  1  0
 18 14  1  0
 19 18  1  0
A    1
S1
A    2
C2
A    3
C3
A    4
C4
A    5
C5
A    6
C6
A    7
C7
A    8
S8
A    9
C9
A   10
S10
A   11
O11
A   12
O12
A   13
N13
A   14
N14
A   15
C15
A   16
O16
A   17
O17
A   18
C18
A   19
C19
M  END
>  <Id>  (2) 
4K13_ETS_A_304

>  <ChainId>  (2) 
A

>  <AsymId>  (2) 
E

>  <SeqNum>  (2) 
304

>  <Name>  (2) 
(4S-TRANS)-4-(ETHYLAMINO)-5,6-DIHYDRO-6-METHYL-4H-THIENO(2,3-B)THIOPYRAN-2-SULFONAMIDE-7,7-DIOXIDE

>  <SystematicName>  (2) 
(4S,6S)-4-(ethylamino)-6-methyl-7,7-bis(oxidanylidene)-5,6-dihydro-4H-thieno[2,3-b]thiopyran-2-sulfonamide

>  <Synonyms>  (2) 
Dorzolamide

>  <Type>  (2) 
NON-POLYMER

>  <Formula>  (2) 
C10 H16 N2 O4 S3

>  <ObservedFormula>  (2) 
S3 C10 N2 O4

>  <MolecularWeight>  (2) 
324.44

>  <ModifiedDate>  (2) 
2013-08-12

>  <Parent>  (2) 


>  <OneLetterCode>  (2) 


>  <SubcomponentList>  (2) 


>  <AmbiguousFlag>  (2) 
N

>  <InsertionCode>  (2) 


>  <InstanceId>  (2) 
4K13_ETS_A_304

>  <ChemCompId>  (2) 
ETS

>  <PdbId>  (2) 
4K13

>  <ResidueNumber>  (2) 
304

>  <InChI>  (2) 
InChI=1S/C10H16N2O4S3/c1-3-12-8-4-6(2)18(13,14)10-7(8)5-9(17-10)19(11,15)16/h5-6,8,12H,3-4H2,1-2H3,(H2,11,15,16)/t6-,8-/m0/s1

>  <InChIKey>  (2) 
IAVUPMFITXYVAF-XPUUQOCRSA-N

>  <SMILES>  (2) 
CCN[C@H]1C[C@@H](S(=O)(=O)c2c1cc(s2)S(=O)(=O)N)C

>  <MissingHeavyAtoms>  (2) 
0

>  <Model>  (2) 
1

>  <AltIds>  (2) 


>  <pKI>  (2) 
7.82

>  <ChemblID>  (2) 
CHEMBL276679

>  <standardized_canonical_smiles>  (2) 
CCN[C@@H]1C[C@H](C)S(=O)(=O)c2sc(S(N)(=O)=O)cc21

$$$$
4M2W_ETS_A_302
     RDKit          3D

 19 20  0  0  0  0  0  0  0  0999 V2000
   15.2390    3.6180   15.7780 S   0  0  0  0  0  0  0  0  0  0  0  0
   16.2560    2.2600   15.9680 C   0  0  0  0  0  0  0  0  0  0  0  0
   17.5720    2.4470   15.3650 C   0  0  0  0  0  0  0  0  0  0  0  0
   17.5210    3.7620   14.7810 C   0  0  0  0  0  0  0  0  0  0  0  0
   18.7930    4.1790   14.0700 C   0  0  0  0  0  0  0  0  0  0  0  0
   18.8740    5.6860   13.9170 C   0  0  0  0  0  0  0  0  0  0  0  0
   17.6350    6.3130   13.3560 C   0  0  0  0  0  0  0  0  0  0  0  0
   16.1880    6.0670   14.3380 S   0  0  0  0  0  0  0  0  0  0  0  0
   16.3720    4.4570   14.9510 C   0  0  0  0  0  0  0  0  0  0  0  0
   15.6590    0.8920   16.9040 S   0  0  0  0  0  0  0  0  0  0  0  0
   16.1950    1.0650   18.2340 O   0  0  0  0  0  0  0  0  0  0  0  0
   14.1890    1.0170   16.8420 O   0  0  0  0  0  0  0  0  0  0  0  0
   16.2200   -0.4590   16.2660 N   0  0  0  0  0  0  0  0  0  0  0  0
   18.7910    3.4050   12.8490 N   0  0  0  0  0  0  0  0  0  0  0  0
   17.3970    5.6960   12.0240 C   0  0  0  0  0  0  0  0  0  0  0  0
   16.2330    6.9900   15.4640 O   0  0  0  0  0  0  0  0  0  0  0  0
   15.0130    6.1340   13.5070 O   0  0  0  0  0  0  0  0  0  0  0  0
   19.9950    3.4380   12.0770 C   0  0  0  0  0  0  0  0  0  0  0  0
   20.1230    2.3590   11.0510 C   0  0  0  0  0  0  0  0  0  0  0  0
  2  1  1  0
  9  1  1  0
  3  2  2  0
 10  2  1  0
  4  3  1  0
  5  4  1  0
  9  4  2  0
  6  5  1  0
 14  5  1  0
  7  6  1  0
  8  7  1  0
 15  7  1  0
  9  8  1  0
 16  8  2  0
 17  8  2  0
 11 10  2  0
 12 10  2  0
 13 10  1  0
 18 14  1  0
 19 18  1  0
A    1
S1
A    2
C2
A    3
C3
A    4
C4
A    5
C5
A    6
C6
A    7
C7
A    8
S8
A    9
C9
A   10
S10
A   11
O11
A   12
O12
A   13
N13
A   14
N14
A   15
C15
A   16
O16
A   17
O17
A   18
C18
A   19
C19
M  END
>  <Id>  (3) 
4M2W_ETS_A_302

>  <ChainId>  (3) 
A

>  <AsymId>  (3) 
C

>  <SeqNum>  (3) 
302

>  <Name>  (3) 
(4S-TRANS)-4-(ETHYLAMINO)-5,6-DIHYDRO-6-METHYL-4H-THIENO(2,3-B)THIOPYRAN-2-SULFONAMIDE-7,7-DIOXIDE

>  <SystematicName>  (3) 
(4S,6S)-4-(ethylamino)-6-methyl-7,7-bis(oxidanylidene)-5,6-dihydro-4H-thieno[2,3-b]thiopyran-2-sulfonamide

>  <Synonyms>  (3) 
Dorzolamide

>  <Type>  (3) 
NON-POLYMER

>  <Formula>  (3) 
C10 H16 N2 O4 S3

>  <ObservedFormula>  (3) 
S3 C10 N2 O4

>  <MolecularWeight>  (3) 
324.44

>  <ModifiedDate>  (3) 
2013-08-12

>  <Parent>  (3) 


>  <OneLetterCode>  (3) 


>  <SubcomponentList>  (3) 


>  <AmbiguousFlag>  (3) 
N

>  <InsertionCode>  (3) 


>  <InstanceId>  (3) 
4M2W_ETS_A_302

>  <ChemCompId>  (3) 
ETS

>  <PdbId>  (3) 
4M2W

>  <ResidueNumber>  (3) 
302

>  <InChI>  (3) 
InChI=1S/C10H16N2O4S3/c1-3-12-8-4-6(2)18(13,14)10-7(8)5-9(17-10)19(11,15)16/h5-6,8,12H,3-4H2,1-2H3,(H2,11,15,16)/t6-,8-/m0/s1

>  <InChIKey>  (3) 
IAVUPMFITXYVAF-XPUUQOCRSA-N

>  <SMILES>  (3) 
CCN[C@H]1C[C@@H](S(=O)(=O)c2c1cc(s2)S(=O)(=O)N)C

>  <MissingHeavyAtoms>  (3) 
0

>  <Model>  (3) 
1

>  <AltIds>  (3) 


>  <pKI>  (3) 
7.82

>  <ChemblID>  (3) 
CHEMBL276679

>  <standardized_canonical_smiles>  (3) 
CCN[C@@H]1C[C@H](C)S(=O)(=O)c2sc(S(N)(=O)=O)cc21

$$$$
4M2U_ETS_A_302
     RDKit          3D

 19 20  0  0  0  0  0  0  0  0999 V2000
   15.1710    3.5450   15.6720 S   0  0  0  0  0  0  0  0  0  0  0  0
   16.1270    2.1520   15.8960 C   0  0  0  0  0  0  0  0  0  0  0  0
   17.4440    2.2250   15.2700 C   0  0  0  0  0  0  0  0  0  0  0  0
   17.4600    3.5510   14.6820 C   0  0  0  0  0  0  0  0  0  0  0  0
   18.7240    3.9180   13.9270 C   0  0  0  0  0  0  0  0  0  0  0  0
   18.8240    5.3970   13.5950 C   0  0  0  0  0  0  0  0  0  0  0  0
   17.5880    5.9550   12.9580 C   0  0  0  0  0  0  0  0  0  0  0  0
   16.2900    5.9180   14.2020 S   0  0  0  0  0  0  0  0  0  0  0  0
   16.3450    4.3020   14.8260 C   0  0  0  0  0  0  0  0  0  0  0  0
   15.4470    0.8200   16.8300 S   0  0  0  0  0  0  0  0  0  0  0  0
   15.9340    0.9220   18.2040 O   0  0  0  0  0  0  0  0  0  0  0  0
   13.9990    0.9660   16.7230 O   0  0  0  0  0  0  0  0  0  0  0  0
   16.0700   -0.5590   16.2440 N   0  0  0  0  0  0  0  0  0  0  0  0
   18.6830    3.1280   12.7030 N   0  0  0  0  0  0  0  0  0  0  0  0
   17.8730    7.3560   12.5020 C   0  0  0  0  0  0  0  0  0  0  0  0
   16.5980    6.7600   15.3240 O   0  0  0  0  0  0  0  0  0  0  0  0
   14.9960    6.2150   13.6350 O   0  0  0  0  0  0  0  0  0  0  0  0
   19.9070    3.1180   11.9390 C   0  0  0  0  0  0  0  0  0  0  0  0
   20.0380    2.0840   10.8520 C   0  0  0  0  0  0  0  0  0  0  0  0
  2  1  1  0
  9  1  1  0
  3  2  2  0
 10  2  1  0
  4  3  1  0
  5  4  1  0
  9  4  2  0
  6  5  1  0
 14  5  1  0
  7  6  1  0
  8  7  1  0
 15  7  1  0
  9  8  1  0
 16  8  2  0
 17  8  2  0
 11 10  2  0
 12 10  2  0
 13 10  1  0
 18 14  1  0
 19 18  1  0
A    1
S1
A    2
C2
A    3
C3
A    4
C4
A    5
C5
A    6
C6
A    7
C7
A    8
S8
A    9
C9
A   10
S10
A   11
O11
A   12
O12
A   13
N13
A   14
N14
A   15
C15
A   16
O16
A   17
O17
A   18
C18
A   19
C19
M  END
>  <Id>  (4) 
4M2U_ETS_A_302

>  <ChainId>  (4) 
A

>  <AsymId>  (4) 
C

>  <SeqNum>  (4) 
302

>  <Name>  (4) 
(4S-TRANS)-4-(ETHYLAMINO)-5,6-DIHYDRO-6-METHYL-4H-THIENO(2,3-B)THIOPYRAN-2-SULFONAMIDE-7,7-DIOXIDE

>  <SystematicName>  (4) 
(4S,6S)-4-(ethylamino)-6-methyl-7,7-bis(oxidanylidene)-5,6-dihydro-4H-thieno[2,3-b]thiopyran-2-sulfonamide

>  <Synonyms>  (4) 
Dorzolamide

>  <Type>  (4) 
NON-POLYMER

>  <Formula>  (4) 
C10 H16 N2 O4 S3

>  <ObservedFormula>  (4) 
S3 C10 N2 O4

>  <MolecularWeight>  (4) 
324.44

>  <ModifiedDate>  (4) 
2013-08-12

>  <Parent>  (4) 


>  <OneLetterCode>  (4) 


>  <SubcomponentList>  (4) 


>  <AmbiguousFlag>  (4) 
N

>  <InsertionCode>  (4) 


>  <InstanceId>  (4) 
4M2U_ETS_A_302

>  <ChemCompId>  (4) 
ETS

>  <PdbId>  (4) 
4M2U

>  <ResidueNumber>  (4) 
302

>  <InChI>  (4) 
InChI=1S/C10H16N2O4S3/c1-3-12-8-4-6(2)18(13,14)10-7(8)5-9(17-10)19(11,15)16/h5-6,8,12H,3-4H2,1-2H3,(H2,11,15,16)/t6-,8-/m0/s1

>  <InChIKey>  (4) 
IAVUPMFITXYVAF-XPUUQOCRSA-N

>  <SMILES>  (4) 
CCN[C@H]1C[C@@H](S(=O)(=O)c2c1cc(s2)S(=O)(=O)N)C

>  <MissingHeavyAtoms>  (4) 
0

>  <Model>  (4) 
1

>  <AltIds>  (4) 


>  <pKI>  (4) 
7.82

>  <ChemblID>  (4) 
CHEMBL276679

>  <standardized_canonical_smiles>  (4) 
CCN[C@@H]1C[C@H](C)S(=O)(=O)c2sc(S(N)(=O)=O)cc21

$$$$
1CIL_ETS_A_263
     RDKit          3D

 19 20  0  0  0  0  0  0  0  0999 V2000
   -6.1860    3.6410   15.7000 S   0  0  0  0  0  0  0  0  0  0  0  0
   -5.2590    2.2490   15.9490 C   0  0  0  0  0  0  0  0  0  0  0  0
   -3.9920    2.3040   15.3640 C   0  0  0  0  0  0  0  0  0  0  0  0
   -3.8200    3.5480   14.6840 C   0  0  0  0  0  0  0  0  0  0  0  0
   -2.6000    3.9180   13.9220 C   0  0  0  0  0  0  0  0  0  0  0  0
   -2.5630    5.4380   13.6650 C   0  0  0  0  0  0  0  0  0  0  0  0
   -3.8020    6.0150   13.0230 C   0  0  0  0  0  0  0  0  0  0  0  0
   -5.0600    6.0120   14.2810 S   0  0  0  0  0  0  0  0  0  0  0  0
   -4.9690    4.3680   14.7880 C   0  0  0  0  0  0  0  0  0  0  0  0
   -5.8850    0.9410   16.8910 S   0  0  0  0  0  0  0  0  0  0  0  0
   -7.3100    0.9870   16.7290 O   0  0  0  0  0  0  0  0  0  0  0  0
   -5.3490    1.0410   18.2200 O   0  0  0  0  0  0  0  0  0  0  0  0
   -5.3270   -0.5200   16.1920 N   0  0  0  0  0  0  0  0  0  0  0  0
   -2.6210    3.1750   12.6490 N   0  0  0  0  0  0  0  0  0  0  0  0
   -3.5160    7.4560   12.5630 C   0  0  0  0  0  0  0  0  0  0  0  0
   -6.3310    6.2230   13.6410 O   0  0  0  0  0  0  0  0  0  0  0  0
   -4.6970    6.8100   15.4220 O   0  0  0  0  0  0  0  0  0  0  0  0
   -1.3550    3.2200   11.9060 C   0  0  0  0  0  0  0  0  0  0  0  0
   -1.4350    2.1450   10.8200 C   0  0  0  0  0  0  0  0  0  0  0  0
  2  1  1  0
  9  1  1  0
  3  2  2  0
 10  2  1  0
  4  3  1  0
  5  4  1  0
  9  4  2  0
  6  5  1  0
 14  5  1  0
  7  6  1  0
  8  7  1  0
 15  7  1  0
  9  8  1  0
 16  8  2  0
 17  8  2  0
 11 10  2  0
 12 10  2  0
 13 10  1  0
 18 14  1  0
 19 18  1  0
A    1
S1
A    2
C2
A    3
C3
A    4
C4
A    5
C5
A    6
C6
A    7
C7
A    8
S8
A    9
C9
A   10
S10
A   11
O11
A   12
O12
A   13
N13
A   14
N14
A   15
C15
A   16
O16
A   17
O17
A   18
C18
A   19
C19
M  END
>  <Id>  (5) 
1CIL_ETS_A_263

>  <ChainId>  (5) 
A

>  <AsymId>  (5) 
C

>  <SeqNum>  (5) 
263

>  <Name>  (5) 
(4S-TRANS)-4-(ETHYLAMINO)-5,6-DIHYDRO-6-METHYL-4H-THIENO(2,3-B)THIOPYRAN-2-SULFONAMIDE-7,7-DIOXIDE

>  <SystematicName>  (5) 
(4S,6S)-4-(ethylamino)-6-methyl-7,7-bis(oxidanylidene)-5,6-dihydro-4H-thieno[2,3-b]thiopyran-2-sulfonamide

>  <Synonyms>  (5) 
Dorzolamide

>  <Type>  (5) 
NON-POLYMER

>  <Formula>  (5) 
C10 H16 N2 O4 S3

>  <ObservedFormula>  (5) 
S3 C10 N2 O4

>  <MolecularWeight>  (5) 
324.44

>  <ModifiedDate>  (5) 
2013-08-12

>  <Parent>  (5) 


>  <OneLetterCode>  (5) 


>  <SubcomponentList>  (5) 


>  <AmbiguousFlag>  (5) 
N

>  <InsertionCode>  (5) 


>  <InstanceId>  (5) 
1CIL_ETS_A_263

>  <ChemCompId>  (5) 
ETS

>  <PdbId>  (5) 
1CIL

>  <ResidueNumber>  (5) 
263

>  <InChI>  (5) 
InChI=1S/C10H16N2O4S3/c1-3-12-8-4-6(2)18(13,14)10-7(8)5-9(17-10)19(11,15)16/h5-6,8,12H,3-4H2,1-2H3,(H2,11,15,16)/t6-,8-/m0/s1

>  <InChIKey>  (5) 
IAVUPMFITXYVAF-XPUUQOCRSA-N

>  <SMILES>  (5) 
CCN[C@H]1C[C@@H](S(=O)(=O)c2c1cc(s2)S(=O)(=O)N)C

>  <MissingHeavyAtoms>  (5) 
0

>  <Model>  (5) 
1

>  <AltIds>  (5) 


>  <pKI>  (5) 
7.82

>  <ChemblID>  (5) 
CHEMBL276679

>  <standardized_canonical_smiles>  (5) 
CCN[C@@H]1C[C@H](C)S(=O)(=O)c2sc(S(N)(=O)=O)cc21

$$$$
1TTM_667_A_264
     RDKit          3D

 21 23  0  0  0  0  0  0  0  0999 V2000
   20.5690   26.4520   19.2310 S   0  0  0  0  0  0  0  0  0  0  0  0
   21.3150   26.3360   20.6850 O   0  0  0  0  0  0  0  0  0  0  0  0
   19.0570   27.0450   19.3460 O   0  0  0  0  0  0  0  0  0  0  0  0
   21.2820   27.4270   18.5820 O   0  0  0  0  0  0  0  0  0  0  0  0
   20.7390   25.0690   18.3140 N   0  0  0  0  0  0  0  0  0  0  0  0
   21.7450   28.6190   19.0710 C   0  0  0  0  0  0  0  0  0  0  0  0
   23.0690   28.7160   19.4890 C   0  0  0  0  0  0  0  0  0  0  0  0
   23.5700   29.9610   19.9990 C   0  0  0  0  0  0  0  0  0  0  0  0
   22.6950   31.1240   20.0790 C   0  0  0  0  0  0  0  0  0  0  0  0
   21.2990   30.9990   19.6420 C   0  0  0  0  0  0  0  0  0  0  0  0
   20.8240   29.7470   19.1310 C   0  0  0  0  0  0  0  0  0  0  0  0
   23.2110   32.5060   20.6320 C   0  0  0  0  0  0  0  0  0  0  0  0
   22.3350   33.5890   20.7000 C   0  0  0  0  0  0  0  0  0  0  0  0
   20.8620   33.4090   20.2290 C   0  0  0  0  0  0  0  0  0  0  0  0
   24.7000   32.6450   21.0920 C   0  0  0  0  0  0  0  0  0  0  0  0
   22.7580   35.0200   21.2470 C   0  0  0  0  0  0  0  0  0  0  0  0
   20.0950   34.3550   20.2900 O   0  0  0  0  0  0  0  0  0  0  0  0
   20.2490   31.9870   19.6280 O   0  0  0  0  0  0  0  0  0  0  0  0
   23.7850   35.0700   22.4410 C   0  0  0  0  0  0  0  0  0  0  0  0
   23.9120   33.7640   23.2780 C   0  0  0  0  0  0  0  0  0  0  0  0
   24.8480   32.7150   22.6220 C   0  0  0  0  0  0  0  0  0  0  0  0
  2  1  2  0
  3  1  2  0
  4  1  1  0
  5  1  1  0
  6  4  1  0
  7  6  2  0
 11  6  1  0
  8  7  1  0
  9  8  2  0
 10  9  1  0
 12  9  1  0
 11 10  2  0
 18 10  1  0
 13 12  2  0
 15 12  1  0
 14 13  1  0
 16 13  1  0
 17 14  2  0
 18 14  1  0
 21 15  1  0
 19 16  1  0
 20 19  1  0
 21 20  1  0
A    1
S1
A    2
O1
A    3
O2
A    4
O3
A    5
N1
A    6
C1
A    7
C2
A    8
C3
A    9
C4
A   10
C5
A   11
C6
A   12
C7
A   13
C8
A   14
C9
A   15
C10
A   16
C11
A   17
O5
A   18
O4
A   19
C12
A   20
C13
A   21
C14
M  END
>  <Id>  (6) 
1TTM_667_A_264

>  <ChainId>  (6) 
A

>  <AsymId>  (6) 
D

>  <SeqNum>  (6) 
264

>  <Name>  (6) 
6-OXO-8,9,10,11-TETRAHYDRO-7H-CYCLOHEPTA[C][1]BENZOPYRAN-3-O-SULFAMATE

>  <SystematicName>  (6) 
null

>  <Synonyms>  (6) 


>  <Type>  (6) 
NON-POLYMER

>  <Formula>  (6) 
C14 H15 N O5 S

>  <ObservedFormula>  (6) 
S C14 N O5

>  <MolecularWeight>  (6) 
309.338

>  <ModifiedDate>  (6) 
2011-06-04

>  <Parent>  (6) 


>  <OneLetterCode>  (6) 


>  <SubcomponentList>  (6) 


>  <AmbiguousFlag>  (6) 
N

>  <InsertionCode>  (6) 


>  <InstanceId>  (6) 
1TTM_667_A_264

>  <ChemCompId>  (6) 
667

>  <PdbId>  (6) 
1TTM

>  <ResidueNumber>  (6) 
264

>  <InChI>  (6) 
InChI=1S/C14H15NO5S/c15-21(17,18)20-9-6-7-11-10-4-2-1-3-5-12(10)14(16)19-13(11)8-9/h6-8H,1-5H2,(H2,15,17,18)

>  <InChIKey>  (6) 
DSLPMJSGSBLWRE-UHFFFAOYSA-N

>  <SMILES>  (6) 
c1cc2c(cc1OS(=O)(=O)N)OC(=O)C3=C2CCCCC3

>  <MissingHeavyAtoms>  (6) 
0

>  <Model>  (6) 
1

>  <AltIds>  (6) 


>  <pKI>  (6) 
7.68

>  <ChemblID>  (6) 
CHEMBL286738

>  <standardized_canonical_smiles>  (6) 
NS(=O)(=O)Oc1ccc2c3c(c(=O)oc2c1)CCCCC3

$$$$
3OIK_WZB_A_300
     RDKit          3D

 30 33  0  0  0  0  0  0  0  0999 V2000
   -7.3890    0.7140   16.9970 O   0  0  0  0  0  0  0  0  0  0  0  0
   -5.9750    0.6370   16.7130 S   0  0  0  0  0  0  0  0  0  0  0  0
   -5.0740    1.1280   17.7710 O   0  0  0  0  0  0  0  0  0  0  0  0
   -5.5220   -0.8530   16.3190 N   0  0  0  0  0  0  0  0  0  0  0  0
   -5.9240    1.5580   15.4790 O   0  0  0  0  0  0  0  0  0  0  0  0
   -4.6220    1.7440   14.8050 C   0  0  0  0  0  0  0  0  0  0  0  0
   -4.2300    0.7350   13.6970 C   0  0  0  0  0  0  0  0  0  0  0  0
   -3.5730    1.6930   12.6230 C   0  0  0  0  0  0  0  0  0  0  0  0
   -4.2710    3.1230   14.3280 C   0  0  0  0  0  0  0  0  0  0  0  0
   -3.1730    2.9160   13.4730 C   0  0  0  0  0  0  0  0  0  0  0  0
   -5.5130    3.5050   13.4330 C   0  0  0  0  0  0  0  0  0  0  0  0
   -4.1510    4.2500   15.2970 C   0  0  0  0  0  0  0  0  0  0  0  0
   -3.7500    5.5020   14.5780 C   0  0  0  0  0  0  0  0  0  0  0  0
   -2.3720    5.2210   13.8810 C   0  0  0  0  0  0  0  0  0  0  0  0
   -2.5200    4.1360   12.7910 C   0  0  0  0  0  0  0  0  0  0  0  0
   -1.2080    3.8620   12.0890 C   0  0  0  0  0  0  0  0  0  0  0  0
   -0.9260    5.1310   11.2240 C   0  0  0  0  0  0  0  0  0  0  0  0
   -0.8420    6.3550   12.1630 C   0  0  0  0  0  0  0  0  0  0  0  0
   -0.0790    7.4630   11.7640 C   0  0  0  0  0  0  0  0  0  0  0  0
   -1.5170    6.4140   13.3860 C   0  0  0  0  0  0  0  0  0  0  0  0
   -1.4210    7.5270   14.2010 C   0  0  0  0  0  0  0  0  0  0  0  0
   -0.6420    8.6190   13.8000 C   0  0  0  0  0  0  0  0  0  0  0  0
   -0.5800    9.8230   14.7480 C   0  0  0  0  0  0  0  0  0  0  0  0
   -1.6580   10.8040   14.2930 C   0  0  0  0  0  0  0  0  0  0  0  0
    0.0300    8.5900   12.5720 C   0  0  0  0  0  0  0  0  0  0  0  0
    0.7840    9.7020   12.2040 O   0  0  0  0  0  0  0  0  0  0  0  0
    2.2670    9.5960   12.2900 S   0  0  0  0  0  0  0  0  0  0  0  0
    2.7570    8.7160   11.1710 O   0  0  0  0  0  0  0  0  0  0  0  0
    2.7670    9.0780   13.6100 O   0  0  0  0  0  0  0  0  0  0  0  0
    2.8990   11.0900   12.0620 N   0  0  0  0  0  0  0  0  0  0  0  0
  2  1  2  0
  3  2  2  0
  4  2  1  0
  5  2  1  0
  6  5  1  0
  7  6  1  0
  9  6  1  0
  8  7  1  0
 10  8  1  0
 10  9  1  0
 11  9  1  0
 12  9  1  0
 15 10  1  0
 13 12  1  0
 14 13  1  0
 15 14  1  0
 20 14  1  0
 16 15  1  0
 17 16  1  0
 18 17  1  0
 19 18  2  0
 20 18  1  0
 25 19  1  0
 21 20  2  0
 22 21  1  0
 23 22  1  0
 25 22  2  0
 24 23  1  0
 26 25  1  0
 27 26  1  0
 28 27  2  0
 29 27  2  0
 30 27  1  0
A    1
OAH
A    2
SBD
A    3
OAG
A    4
NAD
A    5
OAS
A    6
CAX
A    7
CAM
A    8
CAO
A    9
CBB
A   10
CBA
A   11
CAB
A   12
CAQ
A   13
CAP
A   14
CAY
A   15
CAZ
A   16
CAN
A   17
CAL
A   18
CAU
A   19
CAI
A   20
CAW
A   21
CAJ
A   22
CAT
A   23
CAK
A   24
CAA
A   25
CAV
A   26
OAR
A   27
SBC
A   28
OAF
A   29
OAE
A   30
NAC
M  END
>  <Id>  (7) 
3OIK_WZB_A_300

>  <ChainId>  (7) 
A

>  <AsymId>  (7) 
C

>  <SeqNum>  (7) 
300

>  <Name>  (7) 
(9BETA,13ALPHA,14BETA,17ALPHA)-2-ETHYLESTRA-1(10),2,4-TRIENE-3,17-DIYL DISULFAMATE

>  <SystematicName>  (7) 
[(8R,9S,13S,14S,17S)-2-ethyl-13-methyl-3-sulfamoyloxy-6,7,8,9,11,12,14,15,16,17-decahydrocyclopenta[a]phenanthren-17-yl] sulfamate

>  <Synonyms>  (7) 
2-ETHYLESTRADIOL 3,17-O,O-BIS-SULFAMATE

>  <Type>  (7) 
non-polymer

>  <Formula>  (7) 
C20 H30 N2 O6 S2

>  <ObservedFormula>  (7) 
S2 C20 N2 O6

>  <MolecularWeight>  (7) 
458.592

>  <ModifiedDate>  (7) 
2011-06-04

>  <Parent>  (7) 


>  <OneLetterCode>  (7) 


>  <SubcomponentList>  (7) 


>  <AmbiguousFlag>  (7) 
N

>  <InsertionCode>  (7) 


>  <InstanceId>  (7) 
3OIK_WZB_A_300

>  <ChemCompId>  (7) 
WZB

>  <PdbId>  (7) 
3OIK

>  <ResidueNumber>  (7) 
300

>  <InChI>  (7) 
InChI=1S/C20H30N2O6S2/c1-3-12-10-16-13(11-18(12)27-29(21,23)24)4-5-15-14(16)8-9-20(2)17(15)6-7-19(20)28-30(22,25)26/h10-11,14-15,17,19H,3-9H2,1-2H3,(H2,21,23,24)(H2,22,25,26)/t14-,15+,17-,19-,20-/m0/s1

>  <InChIKey>  (7) 
LDOGEZTUWBORPG-SSGANFLRSA-N

>  <SMILES>  (7) 
CCc1cc2c(cc1OS(=O)(=O)N)CC[C@@H]3[C@@H]2CC[C@]4([C@H]3CC[C@@H]4OS(=O)(=O)N)C

>  <MissingHeavyAtoms>  (7) 
0

>  <Model>  (7) 
1

>  <AltIds>  (7) 


>  <pKI>  (7) 
6.63

>  <ChemblID>  (7) 
CHEMBL425287

>  <standardized_canonical_smiles>  (7) 
CCc1cc2c(cc1OS(N)(=O)=O)CC[C@@H]1[C@@H]2CC[C@]2(C)[C@@H](OS(N)(=O)=O)CC[C@@H]12

$$$$
2X7T_WZB_A_1261
     RDKit          3D

 30 33  0  0  0  0  0  0  0  0999 V2000
   -7.2590    1.0810   17.1950 O   0  0  0  0  0  0  0  0  0  0  0  0
   -5.8440    1.1230   16.8590 S   0  0  0  0  0  0  0  0  0  0  0  0
   -5.0640    1.7200   17.8900 O   0  0  0  0  0  0  0  0  0  0  0  0
   -5.2570   -0.2570   16.5960 N   0  0  0  0  0  0  0  0  0  0  0  0
   -5.7450    1.9740   15.4580 O   0  0  0  0  0  0  0  0  0  0  0  0
   -4.4780    2.1930   14.8150 C   0  0  0  0  0  0  0  0  0  0  0  0
   -4.3360    1.3680   13.5120 C   0  0  0  0  0  0  0  0  0  0  0  0
   -3.3380    2.1590   12.6430 C   0  0  0  0  0  0  0  0  0  0  0  0
   -4.2720    3.6400   14.3690 C   0  0  0  0  0  0  0  0  0  0  0  0
   -2.9700    3.3090   13.5950 C   0  0  0  0  0  0  0  0  0  0  0  0
   -5.5180    4.0930   13.5180 C   0  0  0  0  0  0  0  0  0  0  0  0
   -4.0290    4.7390   15.4340 C   0  0  0  0  0  0  0  0  0  0  0  0
   -3.2790    5.9790   14.8850 C   0  0  0  0  0  0  0  0  0  0  0  0
   -1.9960    5.5750   14.1090 C   0  0  0  0  0  0  0  0  0  0  0  0
   -2.3100    4.5640   12.9310 C   0  0  0  0  0  0  0  0  0  0  0  0
   -1.0130    4.1990   12.1530 C   0  0  0  0  0  0  0  0  0  0  0  0
   -0.4090    5.4620   11.4650 C   0  0  0  0  0  0  0  0  0  0  0  0
   -0.4900    6.7330   12.3220 C   0  0  0  0  0  0  0  0  0  0  0  0
    0.2120    7.9250   11.8830 C   0  0  0  0  0  0  0  0  0  0  0  0
   -1.2440    6.7840   13.5670 C   0  0  0  0  0  0  0  0  0  0  0  0
   -1.0960    7.9940   14.0470 C   0  0  0  0  0  0  0  0  0  0  0  0
   -0.5640    9.1860   13.8900 C   0  0  0  0  0  0  0  0  0  0  0  0
   -0.6830   10.3940   14.8140 C   0  0  0  0  0  0  0  0  0  0  0  0
   -1.8820   11.2210   14.3680 C   0  0  0  0  0  0  0  0  0  0  0  0
    0.1890    9.1500   12.6430 C   0  0  0  0  0  0  0  0  0  0  0  0
    0.8930   10.2470   12.1610 O   0  0  0  0  0  0  0  0  0  0  0  0
    2.5430   10.2540   12.2570 S   0  0  0  0  0  0  0  0  0  0  0  0
    3.0080   11.6470   12.0590 O   0  0  0  0  0  0  0  0  0  0  0  0
    3.1160    9.4060   11.1880 O   0  0  0  0  0  0  0  0  0  0  0  0
    3.0410    9.7330   13.6050 N   0  0  0  0  0  0  0  0  0  0  0  0
  2  1  2  0
  3  2  2  0
  4  2  1  0
  5  2  1  0
  6  5  1  0
  7  6  1  0
  9  6  1  0
  8  7  1  0
 10  8  1  0
 10  9  1  0
 11  9  1  0
 12  9  1  0
 15 10  1  0
 13 12  1  0
 14 13  1  0
 15 14  1  0
 20 14  1  0
 16 15  1  0
 17 16  1  0
 18 17  1  0
 19 18  2  0
 20 18  1  0
 25 19  1  0
 21 20  2  0
 22 21  1  0
 23 22  1  0
 25 22  2  0
 24 23  1  0
 26 25  1  0
 27 26  1  0
 28 27  2  0
 29 27  2  0
 30 27  1  0
A    1
OAH
A    2
SBD
A    3
OAG
A    4
NAD
A    5
OAS
A    6
CAX
A    7
CAM
A    8
CAO
A    9
CBB
A   10
CBA
A   11
CAB
A   12
CAQ
A   13
CAP
A   14
CAY
A   15
CAZ
A   16
CAN
A   17
CAL
A   18
CAU
A   19
CAI
A   20
CAW
A   21
CAJ
A   22
CAT
A   23
CAK
A   24
CAA
A   25
CAV
A   26
OAR
A   27
SBC
A   28
OAF
A   29
OAE
A   30
NAC
M  END
>  <Id>  (8) 
2X7T_WZB_A_1261

>  <ChainId>  (8) 
A

>  <AsymId>  (8) 
B

>  <SeqNum>  (8) 
1261

>  <Name>  (8) 
(9BETA,13ALPHA,14BETA,17ALPHA)-2-ETHYLESTRA-1(10),2,4-TRIENE-3,17-DIYL DISULFAMATE

>  <SystematicName>  (8) 
[(8R,9S,13S,14S,17S)-2-ethyl-13-methyl-3-sulfamoyloxy-6,7,8,9,11,12,14,15,16,17-decahydrocyclopenta[a]phenanthren-17-yl] sulfamate

>  <Synonyms>  (8) 
2-ETHYLESTRADIOL 3,17-O,O-BIS-SULFAMATE

>  <Type>  (8) 
non-polymer

>  <Formula>  (8) 
C20 H30 N2 O6 S2

>  <ObservedFormula>  (8) 
S2 C20 N2 O6

>  <MolecularWeight>  (8) 
458.592

>  <ModifiedDate>  (8) 
2011-06-04

>  <Parent>  (8) 


>  <OneLetterCode>  (8) 


>  <SubcomponentList>  (8) 


>  <AmbiguousFlag>  (8) 
N

>  <InsertionCode>  (8) 


>  <InstanceId>  (8) 
2X7T_WZB_A_1261

>  <ChemCompId>  (8) 
WZB

>  <PdbId>  (8) 
2X7T

>  <ResidueNumber>  (8) 
1261

>  <InChI>  (8) 
InChI=1S/C20H30N2O6S2/c1-3-12-10-16-13(11-18(12)27-29(21,23)24)4-5-15-14(16)8-9-20(2)17(15)6-7-19(20)28-30(22,25)26/h10-11,14-15,17,19H,3-9H2,1-2H3,(H2,21,23,24)(H2,22,25,26)/t14-,15+,17-,19-,20-/m0/s1

>  <InChIKey>  (8) 
LDOGEZTUWBORPG-SSGANFLRSA-N

>  <SMILES>  (8) 
CCc1cc2c(cc1OS(=O)(=O)N)CC[C@@H]3[C@@H]2CC[C@]4([C@H]3CC[C@@H]4OS(=O)(=O)N)C

>  <MissingHeavyAtoms>  (8) 
0

>  <Model>  (8) 
1

>  <AltIds>  (8) 


>  <pKI>  (8) 
6.63

>  <ChemblID>  (8) 
CHEMBL425287

>  <standardized_canonical_smiles>  (8) 
CCc1cc2c(cc1OS(N)(=O)=O)CC[C@@H]1[C@@H]2CC[C@]2(C)[C@@H](OS(N)(=O)=O)CC[C@@H]12

$$$$
1BCD_FMS_A_500
     RDKit          3D

  8  7  0  0  0  0  0  0  0  0999 V2000
   -6.5640    1.6460   17.4020 C   0  0  0  0  0  0  0  0  0  0  0  0
   -7.6990    1.3040   16.9150 F   0  0  0  0  0  0  0  0  0  0  0  0
   -6.5680    3.0110   17.3310 F   0  0  0  0  0  0  0  0  0  0  0  0
   -6.3360    1.1890   18.5890 F   0  0  0  0  0  0  0  0  0  0  0  0
   -5.2870    1.1360   16.3120 S   0  0  0  0  0  0  0  0  0  0  0  0
   -5.1990   -0.4760   16.1990 N   0  0  0  0  0  0  0  0  0  0  0  0
   -3.9940    1.5610   16.8260 O   0  0  0  0  0  0  0  0  0  0  0  0
   -5.6450    1.7270   15.0180 O   0  0  0  0  0  0  0  0  0  0  0  0
  2  1  1  0
  3  1  1  0
  4  1  1  0
  5  1  1  0
  6  5  1  0
  7  5  2  0
  8  5  2  0
A    1
C
A    2
F1
A    3
F2
A    4
F3
A    5
S
A    6
N
A    7
O1
A    8
O2
M  END
>  <Id>  (9) 
1BCD_FMS_A_500

>  <ChainId>  (9) 
A

>  <AsymId>  (9) 
C

>  <SeqNum>  (9) 
500

>  <Name>  (9) 
TRIFLUOROMETHANE SULFONAMIDE

>  <SystematicName>  (9) 
trifluoromethanesulfonamide

>  <Synonyms>  (9) 


>  <Type>  (9) 
NON-POLYMER

>  <Formula>  (9) 
C H2 F3 N O2 S

>  <ObservedFormula>  (9) 
C S F3 N O2

>  <MolecularWeight>  (9) 
149.092

>  <ModifiedDate>  (9) 
2011-06-04

>  <Parent>  (9) 


>  <OneLetterCode>  (9) 


>  <SubcomponentList>  (9) 


>  <AmbiguousFlag>  (9) 
N

>  <InsertionCode>  (9) 


>  <InstanceId>  (9) 
1BCD_FMS_A_500

>  <ChemCompId>  (9) 
FMS

>  <PdbId>  (9) 
1BCD

>  <ResidueNumber>  (9) 
500

>  <InChI>  (9) 
InChI=1S/CH2F3NO2S/c2-1(3,4)8(5,6)7/h(H2,5,6,7)

>  <InChIKey>  (9) 
KAKQVSNHTBLJCH-UHFFFAOYSA-N

>  <SMILES>  (9) 
C(F)(F)(F)S(=O)(=O)N

>  <MissingHeavyAtoms>  (9) 
0

>  <Model>  (9) 
1

>  <AltIds>  (9) 


>  <pKI>  (9) 
8.7

>  <ChemblID>  (9) 
CHEMBL67511

>  <standardized_canonical_smiles>  (9) 
NS(=O)(=O)C(F)(F)F

$$$$
1OQ5_CEL_A_701
     RDKit          3D

 26 28  0  0  0  0  0  0  0  0999 V2000
   15.2890    2.8460   16.6520 S   0  0  0  0  0  0  0  0  0  0  0  0
   15.9880    4.1960   15.7120 C   0  0  0  0  0  0  0  0  0  0  0  0
   15.1860    5.2150   15.2560 C   0  0  0  0  0  0  0  0  0  0  0  0
   15.7540    6.3000   14.6040 C   0  0  0  0  0  0  0  0  0  0  0  0
   17.1130    6.3320   14.4410 C   0  0  0  0  0  0  0  0  0  0  0  0
   17.9260    5.3110   14.8920 C   0  0  0  0  0  0  0  0  0  0  0  0
   17.3580    4.2110   15.5450 C   0  0  0  0  0  0  0  0  0  0  0  0
   17.6970    7.5280   13.8490 N   0  0  0  0  0  0  0  0  0  0  0  0
   17.5200    8.1910   12.6670 C   0  0  0  0  0  0  0  0  0  0  0  0
   16.7620    7.8190   11.4780 C   0  0  0  0  0  0  0  0  0  0  0  0
   16.8180    6.4970   11.0640 C   0  0  0  0  0  0  0  0  0  0  0  0
   16.1520    6.0970    9.9300 C   0  0  0  0  0  0  0  0  0  0  0  0
   15.3810    6.9930    9.2250 C   0  0  0  0  0  0  0  0  0  0  0  0
   14.6630    6.5370    7.9810 C   0  0  0  0  0  0  0  0  0  0  0  0
   15.2560    8.3000    9.6820 C   0  0  0  0  0  0  0  0  0  0  0  0
   15.9710    8.7060   10.7780 C   0  0  0  0  0  0  0  0  0  0  0  0
   18.3570    9.3030   12.7050 C   0  0  0  0  0  0  0  0  0  0  0  0
   18.9230    9.2700   13.9750 C   0  0  0  0  0  0  0  0  0  0  0  0
   19.8490   10.2670   14.5820 C   0  0  0  0  0  0  0  0  0  0  0  0
   21.0600   10.2580   14.0890 F   0  0  0  0  0  0  0  0  0  0  0  0
   19.9160   10.2130   15.9080 F   0  0  0  0  0  0  0  0  0  0  0  0
   19.3800   11.4890   14.3610 F   0  0  0  0  0  0  0  0  0  0  0  0
   18.5310    8.2110   14.6570 N   0  0  0  0  0  0  0  0  0  0  0  0
   15.8130    1.4840   16.0220 N   0  0  0  0  0  0  0  0  0  0  0  0
   13.8900    2.9120   16.5270 O   0  0  0  0  0  0  0  0  0  0  0  0
   15.8140    3.0120   17.9850 O   0  0  0  0  0  0  0  0  0  0  0  0
  2  1  1  0
 24  1  1  0
 25  1  2  0
 26  1  2  0
  3  2  2  0
  7  2  1  0
  4  3  1  0
  5  4  2  0
  6  5  1  0
  8  5  1  0
  7  6  2  0
  9  8  1  0
 23  8  1  0
 10  9  1  0
 17  9  2  0
 11 10  2  0
 16 10  1  0
 12 11  1  0
 13 12  2  0
 14 13  1  0
 15 13  1  0
 16 15  2  0
 18 17  1  0
 19 18  1  0
 23 18  2  0
 20 19  1  0
 21 19  1  0
 22 19  1  0
A    1
S1
A    2
C15
A    3
C14
A    4
C13
A    5
C12
A    6
C17
A    7
C16
A    8
N2
A    9
C3
A   10
C5
A   11
C10
A   12
C9
A   13
C8
A   14
C11
A   15
C7
A   16
C6
A   17
C2
A   18
C1
A   19
C4
A   20
F3
A   21
F2
A   22
F1
A   23
N1
A   24
N3
A   25
O2
A   26
O1
M  END
>  <Id>  (10) 
1OQ5_CEL_A_701

>  <ChainId>  (10) 
A

>  <AsymId>  (10) 
C

>  <SeqNum>  (10) 
701

>  <Name>  (10) 
4-[5-(4-METHYLPHENYL)-3-(TRIFLUOROMETHYL)-1H-PYRAZOL-1-YL]BENZENESULFONAMIDE

>  <SystematicName>  (10) 
4-[5-(4-methylphenyl)-3-(trifluoromethyl)pyrazol-1-yl]benzenesulfonamide

>  <Synonyms>  (10) 
CELECOXIB

>  <Type>  (10) 
NON-POLYMER

>  <Formula>  (10) 
C17 H14 F3 N3 O2 S

>  <ObservedFormula>  (10) 
S C17 F3 N3 O2

>  <MolecularWeight>  (10) 
381.372

>  <ModifiedDate>  (10) 
2011-06-04

>  <Parent>  (10) 


>  <OneLetterCode>  (10) 


>  <SubcomponentList>  (10) 


>  <AmbiguousFlag>  (10) 
N

>  <InsertionCode>  (10) 


>  <InstanceId>  (10) 
1OQ5_CEL_A_701

>  <ChemCompId>  (10) 
CEL

>  <PdbId>  (10) 
1OQ5

>  <ResidueNumber>  (10) 
701

>  <InChI>  (10) 
InChI=1S/C17H14F3N3O2S/c1-11-2-4-12(5-3-11)15-10-16(17(18,19)20)22-23(15)13-6-8-14(9-7-13)26(21,24)25/h2-10H,1H3,(H2,21,24,25)

>  <InChIKey>  (10) 
RZEKVGVHFLEQIL-UHFFFAOYSA-N

>  <SMILES>  (10) 
Cc1ccc(cc1)c2cc(nn2c3ccc(cc3)S(=O)(=O)N)C(F)(F)F

>  <MissingHeavyAtoms>  (10) 
0

>  <Model>  (10) 
1

>  <AltIds>  (10) 


>  <pKI>  (10) 
4.68

>  <ChemblID>  (10) 
CHEMBL118

>  <standardized_canonical_smiles>  (10) 
Cc1ccc(-c2cc(C(F)(F)F)nn2-c2ccc(S(N)(=O)=O)cc2)cc1

$$$$
3L14_I7B_A_301
     RDKit          3D

 16 16  0  0  0  0  0  0  0  0999 V2000
   -5.0850    1.7520   14.7190 C   0  0  0  0  0  0  0  0  0  0  0  0
   -4.7770    2.7170   13.7550 C   0  0  0  0  0  0  0  0  0  0  0  0
   -5.1160    4.1260   14.0940 C   0  0  0  0  0  0  0  0  0  0  0  0
   -5.7320    4.3960   15.3070 C   0  0  0  0  0  0  0  0  0  0  0  0
   -6.0240    3.4020   16.2190 C   0  0  0  0  0  0  0  0  0  0  0  0
   -5.6630    2.0240   15.9080 C   0  0  0  0  0  0  0  0  0  0  0  0
   -4.0650    2.3080   12.2580 S   0  0  0  0  0  0  0  0  0  0  0  0
   -4.7560    2.8770   11.1520 N   0  0  0  0  0  0  0  0  0  0  0  0
   -4.0890    0.7770   12.1650 O   0  0  0  0  0  0  0  0  0  0  0  0
   -2.5160    2.6760   12.3060 O   0  0  0  0  0  0  0  0  0  0  0  0
   -6.0770    0.6850   17.0020 S   0  0  0  0  0  0  0  0  0  0  0  0
   -5.5340   -0.6580   16.3600 N   0  0  0  0  0  0  0  0  0  0  0  0
   -7.5280    0.6790   17.0120 O   0  0  0  0  0  0  0  0  0  0  0  0
   -5.4210    0.9720   18.2730 O   0  0  0  0  0  0  0  0  0  0  0  0
   -4.7920    5.2700   13.2050 N   0  0  0  0  0  0  0  0  0  0  0  0
   -6.7370    3.7840   17.6380 Cl  0  0  0  0  0  0  0  0  0  0  0  0
  2  1  2  0
  6  1  1  0
  3  2  1  0
  7  2  1  0
  4  3  2  0
 15  3  1  0
  5  4  1  0
  6  5  2  0
 16  5  1  0
 11  6  1  0
  8  7  1  0
  9  7  2  0
 10  7  2  0
 12 11  1  0
 13 11  2  0
 14 11  2  0
A    1
C2
A    2
C1
A    3
C6
A    4
C5
A    5
C4
A    6
C3
A    7
S1
A    8
N1
A    9
O2
A   10
O1
A   11
S2
A   12
N2
A   13
O3
A   14
O4
A   15
N3
A   16
CL1
M  END
>  <Id>  (11) 
3L14_I7B_A_301

>  <ChainId>  (11) 
A

>  <AsymId>  (11) 
C

>  <SeqNum>  (11) 
301

>  <Name>  (11) 
4-AMINO-6-CHLOROBENZENE-1,3-DISULFONAMIDE

>  <SystematicName>  (11) 
4-amino-6-chloro-benzene-1,3-disulfonamide

>  <Synonyms>  (11) 


>  <Type>  (11) 
NON-POLYMER

>  <Formula>  (11) 
C6 H8 Cl N3 O4 S2

>  <ObservedFormula>  (11) 
C6 S2 Cl N3 O4

>  <MolecularWeight>  (11) 
285.728

>  <ModifiedDate>  (11) 
2011-06-04

>  <Parent>  (11) 


>  <OneLetterCode>  (11) 


>  <SubcomponentList>  (11) 


>  <AmbiguousFlag>  (11) 


>  <InsertionCode>  (11) 


>  <InstanceId>  (11) 
3L14_I7B_A_301

>  <ChemCompId>  (11) 
I7B

>  <PdbId>  (11) 
3L14

>  <ResidueNumber>  (11) 
301

>  <InChI>  (11) 
InChI=1S/C6H8ClN3O4S2/c7-3-1-4(8)6(16(10,13)14)2-5(3)15(9,11)12/h1-2H,8H2,(H2,9,11,12)(H2,10,13,14)

>  <InChIKey>  (11) 
IHJCXVZDYSXXFT-UHFFFAOYSA-N

>  <SMILES>  (11) 
c1c(c(cc(c1Cl)S(=O)(=O)N)S(=O)(=O)N)N

>  <MissingHeavyAtoms>  (11) 
0

>  <Model>  (11) 
1

>  <AltIds>  (11) 


>  <pKI>  (11) 
7.12

>  <ChemblID>  (11) 
CHEMBL266240

>  <standardized_canonical_smiles>  (11) 
Nc1cc(Cl)c(S(N)(=O)=O)cc1S(N)(=O)=O

$$$$
2POV_I7B_A_1000
     RDKit          3D

 16 16  0  0  0  0  0  0  0  0999 V2000
   -5.0010    1.8880   14.4280 C   0  0  0  0  0  0  0  0  0  0  0  0
   -4.6880    2.8680   13.4690 C   0  0  0  0  0  0  0  0  0  0  0  0
   -4.9860    4.2330   13.6890 C   0  0  0  0  0  0  0  0  0  0  0  0
   -5.6030    4.5960   14.8950 C   0  0  0  0  0  0  0  0  0  0  0  0
   -5.9280    3.6290   15.8700 C   0  0  0  0  0  0  0  0  0  0  0  0
   -5.6210    2.2630   15.6310 C   0  0  0  0  0  0  0  0  0  0  0  0
   -3.9260    2.3540   11.9650 S   0  0  0  0  0  0  0  0  0  0  0  0
   -2.4210    2.8280   11.9870 N   0  0  0  0  0  0  0  0  0  0  0  0
   -3.9220    0.9300   11.9350 O   0  0  0  0  0  0  0  0  0  0  0  0
   -4.6000    3.0620   10.9260 O   0  0  0  0  0  0  0  0  0  0  0  0
   -5.9990    0.9650   16.7970 S   0  0  0  0  0  0  0  0  0  0  0  0
   -5.4320   -0.3990   16.2560 N   0  0  0  0  0  0  0  0  0  0  0  0
   -5.3270    1.2620   18.0240 O   0  0  0  0  0  0  0  0  0  0  0  0
   -7.4270    0.8620   16.8030 O   0  0  0  0  0  0  0  0  0  0  0  0
   -4.6950    5.2290   12.7640 N   0  0  0  0  0  0  0  0  0  0  0  0
   -6.6660    4.1030   17.3040 Cl  0  0  0  0  0  0  0  0  0  0  0  0
  2  1  2  0
  6  1  1  0
  3  2  1  0
  7  2  1  0
  4  3  2  0
 15  3  1  0
  5  4  1  0
  6  5  2  0
 16  5  1  0
 11  6  1  0
  8  7  1  0
  9  7  2  0
 10  7  2  0
 12 11  1  0
 13 11  2  0
 14 11  2  0
A    1
C2
A    2
C1
A    3
C6
A    4
C5
A    5
C4
A    6
C3
A    7
S1
A    8
N1
A    9
O2
A   10
O1
A   11
S2
A   12
N2
A   13
O3
A   14
O4
A   15
N3
A   16
CL1
M  END
>  <Id>  (12) 
2POV_I7B_A_1000

>  <ChainId>  (12) 
A

>  <AsymId>  (12) 
C

>  <SeqNum>  (12) 
1000

>  <Name>  (12) 
4-AMINO-6-CHLOROBENZENE-1,3-DISULFONAMIDE

>  <SystematicName>  (12) 
4-amino-6-chloro-benzene-1,3-disulfonamide

>  <Synonyms>  (12) 


>  <Type>  (12) 
NON-POLYMER

>  <Formula>  (12) 
C6 H8 Cl N3 O4 S2

>  <ObservedFormula>  (12) 
C6 S2 Cl N3 O4

>  <MolecularWeight>  (12) 
285.728

>  <ModifiedDate>  (12) 
2011-06-04

>  <Parent>  (12) 


>  <OneLetterCode>  (12) 


>  <SubcomponentList>  (12) 


>  <AmbiguousFlag>  (12) 


>  <InsertionCode>  (12) 


>  <InstanceId>  (12) 
2POV_I7B_A_1000

>  <ChemCompId>  (12) 
I7B

>  <PdbId>  (12) 
2POV

>  <ResidueNumber>  (12) 
1000

>  <InChI>  (12) 
InChI=1S/C6H8ClN3O4S2/c7-3-1-4(8)6(16(10,13)14)2-5(3)15(9,11)12/h1-2H,8H2,(H2,9,11,12)(H2,10,13,14)

>  <InChIKey>  (12) 
IHJCXVZDYSXXFT-UHFFFAOYSA-N

>  <SMILES>  (12) 
c1c(c(cc(c1Cl)S(=O)(=O)N)S(=O)(=O)N)N

>  <MissingHeavyAtoms>  (12) 
0

>  <Model>  (12) 
1

>  <AltIds>  (12) 


>  <pKI>  (12) 
7.12

>  <ChemblID>  (12) 
CHEMBL266240

>  <standardized_canonical_smiles>  (12) 
Nc1cc(Cl)c(S(N)(=O)=O)cc1S(N)(=O)=O

$$$$
4YYT_S2O_A_306
     RDKit          3D

 11 11  0  0  0  0  0  0  0  0999 V2000
   -5.0360    7.6500   78.2770 O   0  0  0  0  0  0  0  0  0  0  0  0
   -4.0070    8.5950   77.9530 S   0  0  0  0  0  0  0  0  0  0  0  0
   -2.8980    8.7300   78.8490 O   0  0  0  0  0  0  0  0  0  0  0  0
   -3.4180    8.1690   76.5250 N   0  0  0  0  0  0  0  0  0  0  0  0
   -4.7730   10.1810   77.8110 C   0  0  0  0  0  0  0  0  0  0  0  0
   -6.1520   10.2880   77.8660 C   0  0  0  0  0  0  0  0  0  0  0  0
   -3.9890   11.3120   77.6570 C   0  0  0  0  0  0  0  0  0  0  0  0
   -4.5980   12.5510   77.5580 C   0  0  0  0  0  0  0  0  0  0  0  0
   -5.9770   12.6810   77.6100 C   0  0  0  0  0  0  0  0  0  0  0  0
   -6.7410   11.5360   77.7650 C   0  0  0  0  0  0  0  0  0  0  0  0
   -6.6300   14.0380   77.5010 C   0  0  0  0  0  0  0  0  0  0  0  0
  2  1  2  0
  3  2  2  0
  4  2  1  0
  5  2  1  0
  6  5  2  0
  7  5  1  0
 10  6  1  0
  8  7  2  0
  9  8  1  0
 10  9  2  0
 11  9  1  0
A    1
O2
A    2
S
A    3
O1
A    4
N
A    5
C2
A    6
C1
A    7
C3
A    8
C4
A    9
C5
A   10
C
A   11
C6
M  END
>  <Id>  (13) 
4YYT_S2O_A_306

>  <ChainId>  (13) 
A

>  <AsymId>  (13) 
G

>  <SeqNum>  (13) 
306

>  <Name>  (13) 
4-(2-hydroxyethyl)benzenesulfonamide

>  <SystematicName>  (13) 
4-(2-hydroxyethyl)benzenesulfonamide

>  <Synonyms>  (13) 


>  <Type>  (13) 
NON-POLYMER

>  <Formula>  (13) 
C8 H11 N O3 S

>  <ObservedFormula>  (13) 
S C7 N O2

>  <MolecularWeight>  (13) 
201.243

>  <ModifiedDate>  (13) 
2016-01-29

>  <Parent>  (13) 


>  <OneLetterCode>  (13) 


>  <SubcomponentList>  (13) 


>  <AmbiguousFlag>  (13) 
N

>  <InsertionCode>  (13) 


>  <InstanceId>  (13) 
4YYT_S2O_A_306

>  <ChemCompId>  (13) 
S2O

>  <PdbId>  (13) 
4YYT

>  <ResidueNumber>  (13) 
306

>  <InChI>  (13) 
InChI=1S/C8H11NO3S/c9-13(11,12)8-3-1-7(2-4-8)5-6-10/h1-4,10H,5-6H2,(H2,9,11,12)

>  <InChIKey>  (13) 
RYKHXKKLCRPAJP-UHFFFAOYSA-N

>  <SMILES>  (13) 
c1cc(ccc1CCO)S(=O)(=O)N

>  <MissingHeavyAtoms>  (13) 
2

>  <Model>  (13) 
1

>  <AltIds>  (13) 


>  <pKI>  (13) 
6.94

>  <ChemblID>  (13) 
CHEMBL6784

>  <standardized_canonical_smiles>  (13) 
NS(=O)(=O)c1ccc(CCO)cc1

$$$$
3M2Y_BE0_A_504
     RDKit          3D

 10 10  0  0  0  0  0  0  0  0999 V2000
   15.4360    3.9020   15.8060 N   0  0  0  0  0  0  0  0  0  0  0  0
   13.6160    2.7150   16.8560 O   0  0  0  0  0  0  0  0  0  0  0  0
   15.0530    2.6840   16.8570 S   0  0  0  0  0  0  0  0  0  0  0  0
   15.7140    2.9210   18.1130 O   0  0  0  0  0  0  0  0  0  0  0  0
   15.6570    1.3680   16.1580 N   0  0  0  0  0  0  0  0  0  0  0  0
   14.7980    5.2130   16.1910 C   0  0  0  0  0  0  0  0  0  0  0  0
   14.9540    6.2650   15.0740 C   0  0  0  0  0  0  0  0  0  0  0  0
   16.4630    6.4460   14.7710 C   0  0  0  0  0  0  0  0  0  0  0  0
   17.0410    5.0700   14.3390 C   0  0  0  0  0  0  0  0  0  0  0  0
   16.8870    4.0620   15.5310 C   0  0  0  0  0  0  0  0  0  0  0  0
  3  1  1  0
  6  1  1  0
 10  1  1  0
  3  2  2  0
  4  3  2  0
  5  3  1  0
  7  6  1  0
  8  7  1  0
  9  8  1  0
 10  9  1  0
A    1
N1
A    2
O1
A    3
S1
A    4
O2
A    5
N2
A    6
CB1
A    7
CC1
A    8
CD1
A    9
CC2
A   10
CB2
M  END
>  <Id>  (14) 
3M2Y_BE0_A_504

>  <ChainId>  (14) 
A

>  <AsymId>  (14) 
F

>  <SeqNum>  (14) 
504

>  <Name>  (14) 
piperidine-1-sulfonamide

>  <SystematicName>  (14) 
piperidine-1-sulfonamide

>  <Synonyms>  (14) 


>  <Type>  (14) 
NON-POLYMER

>  <Formula>  (14) 
C5 H12 N2 O2 S

>  <ObservedFormula>  (14) 
S C5 N2 O2

>  <MolecularWeight>  (14) 
164.226

>  <ModifiedDate>  (14) 
2011-06-04

>  <Parent>  (14) 


>  <OneLetterCode>  (14) 


>  <SubcomponentList>  (14) 


>  <AmbiguousFlag>  (14) 
N

>  <InsertionCode>  (14) 


>  <InstanceId>  (14) 
3M2Y_BE0_A_504

>  <ChemCompId>  (14) 
BE0

>  <PdbId>  (14) 
3M2Y

>  <ResidueNumber>  (14) 
504

>  <InChI>  (14) 
InChI=1S/C5H12N2O2S/c6-10(8,9)7-4-2-1-3-5-7/h1-5H2,(H2,6,8,9)

>  <InChIKey>  (14) 
FLKRMXAWABTWSH-UHFFFAOYSA-N

>  <SMILES>  (14) 
C1CCN(CC1)S(=O)(=O)N

>  <MissingHeavyAtoms>  (14) 
0

>  <Model>  (14) 
1

>  <AltIds>  (14) 


>  <pKI>  (14) 
6.83

>  <ChemblID>  (14) 
CHEMBL169370

>  <standardized_canonical_smiles>  (14) 
NS(=O)(=O)N1CCCCC1

$$$$
3MHC_ARZ_A_263
     RDKit          3D

 22 25  0  0  0  0  0  0  0  0999 V2000
   -5.3240   -0.3420   16.1320 N   0  0  0  0  0  0  0  0  0  0  0  0
   -6.4720    5.7780   13.4580 O   0  0  0  0  0  0  0  0  0  0  0  0
   -5.2590    1.1530   17.9920 O   0  0  0  0  0  0  0  0  0  0  0  0
   -7.1990    1.1260   16.5130 O   0  0  0  0  0  0  0  0  0  0  0  0
   -3.9290    8.1600    9.7660 C   0  0  0  0  0  0  0  0  0  0  0  0
   -6.2900    7.9740    9.2340 C   0  0  0  0  0  0  0  0  0  0  0  0
   -5.4640    9.3840   10.8290 C   0  0  0  0  0  0  0  0  0  0  0  0
   -4.8280    6.4280   10.5470 C   0  0  0  0  0  0  0  0  0  0  0  0
   -3.9970    7.6910   12.0380 C   0  0  0  0  0  0  0  0  0  0  0  0
   -6.5030    7.6170   11.7280 C   0  0  0  0  0  0  0  0  0  0  0  0
   -3.5310    3.5300   14.8100 N   0  0  0  0  0  0  0  0  0  0  0  0
   -3.7320    2.3670   15.6680 N   0  0  0  0  0  0  0  0  0  0  0  0
   -4.1090    5.2460   13.6150 N   0  0  0  0  0  0  0  0  0  0  0  0
   -5.8590    3.4430   14.9650 S   0  0  0  0  0  0  0  0  0  0  0  0
   -5.3300    5.9360   13.1980 C   0  0  0  0  0  0  0  0  0  0  0  0
   -4.6410    4.2220   14.3480 C   0  0  0  0  0  0  0  0  0  0  0  0
   -5.0800    2.2610   15.7990 C   0  0  0  0  0  0  0  0  0  0  0  0
   -4.9730    7.1910    9.3070 C   0  0  0  0  0  0  0  0  0  0  0  0
   -4.1640    8.8230   11.0960 C   0  0  0  0  0  0  0  0  0  0  0  0
   -6.6230    8.6120   10.6140 C   0  0  0  0  0  0  0  0  0  0  0  0
   -5.2200    6.8700   11.8520 C   0  0  0  0  0  0  0  0  0  0  0  0
   -5.8480    0.8850   16.6140 S   0  0  0  0  0  0  0  0  0  0  0  0
 22  1  1  0
 15  2  2  0
 22  3  2  0
 22  4  2  0
 18  5  1  0
 19  5  1  0
 18  6  1  0
 20  6  1  0
 19  7  1  0
 20  7  1  0
 18  8  1  0
 21  8  1  0
 19  9  1  0
 21  9  1  0
 20 10  1  0
 21 10  1  0
 12 11  1  0
 16 11  2  0
 17 12  2  0
 15 13  1  0
 16 13  1  0
 16 14  1  0
 17 14  1  0
 21 15  1  0
 22 17  1  0
A    1
NAA
A    2
OAB
A    3
OAC
A    4
OAD
A    5
CAE
A    6
CAF
A    7
CAG
A    8
CAH
A    9
CAI
A   10
CAJ
A   11
NAK
A   12
NAL
A   13
NAM
A   14
SAN
A   15
CAO
A   16
CAP
A   17
CAQ
A   18
CAR
A   19
CAS
A   20
CAT
A   21
CAU
A   22
SAV
M  END
>  <Id>  (15) 
3MHC_ARZ_A_263

>  <ChainId>  (15) 
A

>  <AsymId>  (15) 
C

>  <SeqNum>  (15) 
263

>  <Name>  (15) 
(3S,5S,7S)-N-(5-sulfamoyl-1,3,4-thiadiazol-2-yl)tricyclo[3.3.1.1~3,7~]decane-1-carboxamide

>  <SystematicName>  (15) 
N-(5-sulfamoyl-1,3,4-thiadiazol-2-yl)adamantane-1-carboxamide

>  <Synonyms>  (15) 
5-(1-adamantylcarboxamido)-1,3,4-thiadiazole-2-sulfonamide

>  <Type>  (15) 
NON-POLYMER

>  <Formula>  (15) 
C13 H18 N4 O3 S2

>  <ObservedFormula>  (15) 
C13 S2 N4 O3

>  <MolecularWeight>  (15) 
342.437

>  <ModifiedDate>  (15) 
2011-06-04

>  <Parent>  (15) 


>  <OneLetterCode>  (15) 


>  <SubcomponentList>  (15) 


>  <AmbiguousFlag>  (15) 
N

>  <InsertionCode>  (15) 


>  <InstanceId>  (15) 
3MHC_ARZ_A_263

>  <ChemCompId>  (15) 
ARZ

>  <PdbId>  (15) 
3MHC

>  <ResidueNumber>  (15) 
263

>  <InChI>  (15) 
InChI=1S/C13H18N4O3S2/c14-22(19,20)12-17-16-11(21-12)15-10(18)13-4-7-1-8(5-13)3-9(2-7)6-13/h7-9H,1-6H2,(H2,14,19,20)(H,15,16,18)/t7-,8+,9-,13-

>  <InChIKey>  (15) 
NBKDQESIWDNDOT-LZFPZTGBSA-N

>  <SMILES>  (15) 
C1C2CC3CC1CC(C2)(C3)C(=O)Nc4nnc(s4)S(=O)(=O)N

>  <MissingHeavyAtoms>  (15) 
0

>  <Model>  (15) 
1

>  <AltIds>  (15) 


>  <pKI>  (15) 
7.99

>  <ChemblID>  (15) 
CHEMBL108971

>  <standardized_canonical_smiles>  (15) 
NS(=O)(=O)c1nnc(NC(=O)C23CC4CC(CC(C4)C2)C3)s1

$$$$
1CIN_MTS_A_264
     RDKit          3D

 18 19  0  0  0  0  0  0  0  0999 V2000
   -6.1220    3.6020   15.5180 S   0  0  0  0  0  0  0  0  0  0  0  0
   -5.2970    2.1280   15.6510 C   0  0  0  0  0  0  0  0  0  0  0  0
   -4.0240    2.1630   15.0510 C   0  0  0  0  0  0  0  0  0  0  0  0
   -3.7950    3.4340   14.4350 C   0  0  0  0  0  0  0  0  0  0  0  0
   -2.5480    3.8070   13.7010 C   0  0  0  0  0  0  0  0  0  0  0  0
   -2.4560    5.3470   13.4550 C   0  0  0  0  0  0  0  0  0  0  0  0
   -3.7100    5.9440   12.8360 C   0  0  0  0  0  0  0  0  0  0  0  0
   -4.9690    5.9070   14.0730 S   0  0  0  0  0  0  0  0  0  0  0  0
   -4.9220    4.2820   14.5570 C   0  0  0  0  0  0  0  0  0  0  0  0
   -5.8630    0.9030   16.7140 S   0  0  0  0  0  0  0  0  0  0  0  0
   -7.2960    0.8830   16.6510 O   0  0  0  0  0  0  0  0  0  0  0  0
   -5.2860    1.0350   18.0140 O   0  0  0  0  0  0  0  0  0  0  0  0
   -5.3260   -0.6530   16.1270 N   0  0  0  0  0  0  0  0  0  0  0  0
   -2.5240    3.0910   12.4030 N   0  0  0  0  0  0  0  0  0  0  0  0
   -3.5370    7.4160   12.4500 C   0  0  0  0  0  0  0  0  0  0  0  0
   -6.2160    6.2230   13.4320 O   0  0  0  0  0  0  0  0  0  0  0  0
   -4.5920    6.6940   15.2230 O   0  0  0  0  0  0  0  0  0  0  0  0
   -1.1720    3.2170   11.8390 C   0  0  0  0  0  0  0  0  0  0  0  0
  2  1  1  0
  9  1  1  0
  3  2  2  0
 10  2  1  0
  4  3  1  0
  5  4  1  0
  9  4  2  0
  6  5  1  0
 14  5  1  0
  7  6  1  0
  8  7  1  0
 15  7  1  0
  9  8  1  0
 16  8  2  0
 17  8  2  0
 11 10  2  0
 12 10  2  0
 13 10  1  0
 18 14  1  0
A    1
S1
A    2
C2
A    3
C3
A    4
C4
A    5
C5
A    6
C6
A    7
C7
A    8
S8
A    9
C9
A   10
S10
A   11
O11
A   12
O12
A   13
N13
A   14
N14
A   15
C15
A   16
O16
A   17
O17
A   18
C18
M  END
>  <Id>  (16) 
1CIN_MTS_A_264

>  <ChainId>  (16) 
A

>  <AsymId>  (16) 
D

>  <SeqNum>  (16) 
264

>  <Name>  (16) 
(4S-TRANS)-4-(METHYLAMINO)-5,6-DIHYDRO-6-METHYL-4H-THIENO(2,3-B)THIOPYRAN-2-SULFONAMIDE-7,7-DIOXIDE

>  <SystematicName>  (16) 
(4S,6S)-6-methyl-4-methylamino-7,7-dioxo-5,6-dihydro-4H-thieno[5,4-b]thiopyran-2-sulfonamide

>  <Synonyms>  (16) 


>  <Type>  (16) 
NON-POLYMER

>  <Formula>  (16) 
C9 H14 N2 O4 S3

>  <ObservedFormula>  (16) 
S3 C9 N2 O4

>  <MolecularWeight>  (16) 
310.413

>  <ModifiedDate>  (16) 
2011-06-04

>  <Parent>  (16) 


>  <OneLetterCode>  (16) 


>  <SubcomponentList>  (16) 


>  <AmbiguousFlag>  (16) 
N

>  <InsertionCode>  (16) 


>  <InstanceId>  (16) 
1CIN_MTS_A_264

>  <ChemCompId>  (16) 
MTS

>  <PdbId>  (16) 
1CIN

>  <ResidueNumber>  (16) 
264

>  <InChI>  (16) 
InChI=1S/C9H14N2O4S3/c1-5-3-7(11-2)6-4-8(18(10,14)15)16-9(6)17(5,12)13/h4-5,7,11H,3H2,1-2H3,(H2,10,14,15)/t5-,7-/m0/s1

>  <InChIKey>  (16) 
PYXFWOIZPYXNRU-FSPLSTOPSA-N

>  <SMILES>  (16) 
C[C@H]1C[C@@H](c2cc(sc2S1(=O)=O)S(=O)(=O)N)NC

>  <MissingHeavyAtoms>  (16) 
0

>  <Model>  (16) 
1

>  <AltIds>  (16) 


>  <pKI>  (16) 
8.73

>  <ChemblID>  (16) 
CHEMBL273822

>  <standardized_canonical_smiles>  (16) 
CN[C@H]1C[C@H](C)S(=O)(=O)c2sc(S(N)(=O)=O)cc21

$$$$
1CIM_PTS_A_264
     RDKit          3D

 17 18  0  0  0  0  0  0  0  0999 V2000
   -6.1700    3.6520   15.4750 S   0  0  0  0  0  0  0  0  0  0  0  0
   -5.3260    2.2020   15.6860 C   0  0  0  0  0  0  0  0  0  0  0  0
   -3.9990    2.2880   15.2110 C   0  0  0  0  0  0  0  0  0  0  0  0
   -3.7300    3.5680   14.6270 C   0  0  0  0  0  0  0  0  0  0  0  0
   -2.4180    3.9510   13.9900 C   0  0  0  0  0  0  0  0  0  0  0  0
   -2.3160    5.4870   13.7360 C   0  0  0  0  0  0  0  0  0  0  0  0
   -3.5540    6.0630   13.0530 C   0  0  0  0  0  0  0  0  0  0  0  0
   -4.8950    6.0150   14.2140 S   0  0  0  0  0  0  0  0  0  0  0  0
   -4.8820    4.3900   14.6570 C   0  0  0  0  0  0  0  0  0  0  0  0
   -5.8890    0.9210   16.7120 S   0  0  0  0  0  0  0  0  0  0  0  0
   -7.3130    0.7920   16.6570 O   0  0  0  0  0  0  0  0  0  0  0  0
   -5.3050    1.0540   18.0130 O   0  0  0  0  0  0  0  0  0  0  0  0
   -5.2850   -0.5820   16.0930 N   0  0  0  0  0  0  0  0  0  0  0  0
   -2.2350    3.2710   12.6770 N   0  0  0  0  0  0  0  0  0  0  0  0
   -3.4120    7.5370   12.6810 C   0  0  0  0  0  0  0  0  0  0  0  0
   -6.0970    6.3500   13.4880 O   0  0  0  0  0  0  0  0  0  0  0  0
   -4.5140    6.8310   15.3300 O   0  0  0  0  0  0  0  0  0  0  0  0
  2  1  1  0
  9  1  1  0
  3  2  2  0
 10  2  1  0
  4  3  1  0
  5  4  1  0
  9  4  2  0
  6  5  1  0
 14  5  1  0
  7  6  1  0
  8  7  1  0
 15  7  1  0
  9  8  1  0
 16  8  2  0
 17  8  2  0
 11 10  2  0
 12 10  2  0
 13 10  1  0
A    1
S1
A    2
C2
A    3
C3
A    4
C4
A    5
C5
A    6
C6
A    7
C7
A    8
S8
A    9
C9
A   10
S10
A   11
O11
A   12
O12
A   13
N13
A   14
N14
A   15
C15
A   16
O16
A   17
O17
M  END
>  <Id>  (17) 
1CIM_PTS_A_264

>  <ChainId>  (17) 
A

>  <AsymId>  (17) 
D

>  <SeqNum>  (17) 
264

>  <Name>  (17) 
(4S-TRANS)-4-(AMINO)-5,6-DIHYDRO-6-METHYL-4H-THIENO (2,3-B)THIOPYRAN-2-SULFONAMIDE-7,7-DIOXIDE

>  <SystematicName>  (17) 
(4S,6S)-4-amino-6-methyl-7,7-dioxo-5,6-dihydro-4H-thieno[5,4-b]thiopyran-2-sulfonamide

>  <Synonyms>  (17) 


>  <Type>  (17) 
NON-POLYMER

>  <Formula>  (17) 
C8 H12 N2 O4 S3

>  <ObservedFormula>  (17) 
S3 C8 N2 O4

>  <MolecularWeight>  (17) 
296.387

>  <ModifiedDate>  (17) 
2011-06-04

>  <Parent>  (17) 


>  <OneLetterCode>  (17) 


>  <SubcomponentList>  (17) 


>  <AmbiguousFlag>  (17) 
N

>  <InsertionCode>  (17) 


>  <InstanceId>  (17) 
1CIM_PTS_A_264

>  <ChemCompId>  (17) 
PTS

>  <PdbId>  (17) 
1CIM

>  <ResidueNumber>  (17) 
264

>  <InChI>  (17) 
InChI=1S/C8H12N2O4S3/c1-4-2-6(9)5-3-7(17(10,13)14)15-8(5)16(4,11)12/h3-4,6H,2,9H2,1H3,(H2,10,13,14)/t4-,6-/m0/s1

>  <InChIKey>  (17) 
HVURBRAECUMAHY-NJGYIYPDSA-N

>  <SMILES>  (17) 
C[C@H]1C[C@@H](c2cc(sc2S1(=O)=O)S(=O)(=O)N)N

>  <MissingHeavyAtoms>  (17) 
0

>  <Model>  (17) 
1

>  <AltIds>  (17) 


>  <pKI>  (17) 
8.82

>  <ChemblID>  (17) 
CHEMBL475

>  <standardized_canonical_smiles>  (17) 
C[C@H]1C[C@H](N)c2cc(S(N)(=O)=O)sc2S1(=O)=O

$$$$
1ZGE_SDA_A_300
     RDKit          3D

 13 13  0  0  0  0  0  0  0  0999 V2000
   15.3140    2.7660   16.5040 S   0  0  0  0  0  0  0  0  0  0  0  0
   15.7860    1.5240   15.8390 N   0  0  0  0  0  0  0  0  0  0  0  0
   15.9150    2.8960   17.8310 O   0  0  0  0  0  0  0  0  0  0  0  0
   13.8620    2.8830   16.4370 O   0  0  0  0  0  0  0  0  0  0  0  0
   16.0230    4.1120   15.5850 C   0  0  0  0  0  0  0  0  0  0  0  0
   17.3890    4.2370   15.3280 C   0  0  0  0  0  0  0  0  0  0  0  0
   17.9040    5.3060   14.6060 C   0  0  0  0  0  0  0  0  0  0  0  0
   19.5980    5.5600   14.2360 Cl  0  0  0  0  0  0  0  0  0  0  0  0
   17.0380    6.2910   14.1190 C   0  0  0  0  0  0  0  0  0  0  0  0
   17.5580    7.3750   13.3800 N   0  0  0  0  0  0  0  0  0  0  0  0
   15.6850    6.1790   14.3630 C   0  0  0  0  0  0  0  0  0  0  0  0
   14.6580    7.4130   13.7360 Cl  0  0  0  0  0  0  0  0  0  0  0  0
   15.1550    5.1100   15.0860 C   0  0  0  0  0  0  0  0  0  0  0  0
  2  1  1  0
  3  1  2  0
  4  1  2  0
  5  1  1  0
  6  5  2  0
 13  5  1  0
  7  6  1  0
  8  7  1  0
  9  7  2  0
 10  9  1  0
 11  9  1  0
 12 11  1  0
 13 11  2  0
A    1
S1
A    2
N13
A    3
O12
A    4
O11
A    5
C2
A    6
C7
A    7
C6
A    8
CL8
A    9
C5
A   10
N10
A   11
C4
A   12
CL9
A   13
C3
M  END
>  <Id>  (18) 
1ZGE_SDA_A_300

>  <ChainId>  (18) 
A

>  <AsymId>  (18) 
C

>  <SeqNum>  (18) 
300

>  <Name>  (18) 
4-AMINO-3,5-DICHLOROBENZENESULFONAMIDE

>  <SystematicName>  (18) 
4-amino-3,5-dichloro-benzenesulfonamide

>  <Synonyms>  (18) 


>  <Type>  (18) 
NON-POLYMER

>  <Formula>  (18) 
C6 H6 Cl2 N2 O2 S

>  <ObservedFormula>  (18) 
S C6 Cl2 N2 O2

>  <MolecularWeight>  (18) 
241.095

>  <ModifiedDate>  (18) 
2011-06-04

>  <Parent>  (18) 


>  <OneLetterCode>  (18) 


>  <SubcomponentList>  (18) 


>  <AmbiguousFlag>  (18) 
N

>  <InsertionCode>  (18) 


>  <InstanceId>  (18) 
1ZGE_SDA_A_300

>  <ChemCompId>  (18) 
SDA

>  <PdbId>  (18) 
1ZGE

>  <ResidueNumber>  (18) 
300

>  <InChI>  (18) 
InChI=1S/C6H6Cl2N2O2S/c7-4-1-3(13(10,11)12)2-5(8)6(4)9/h1-2H,9H2,(H2,10,11,12)

>  <InChIKey>  (18) 
DVZMRTJKNJKEGV-UHFFFAOYSA-N

>  <SMILES>  (18) 
c1c(cc(c(c1Cl)N)Cl)S(=O)(=O)N

>  <MissingHeavyAtoms>  (18) 
0

>  <Model>  (18) 
1

>  <AltIds>  (18) 


>  <pKI>  (18) 
7.3

>  <ChemblID>  (18) 
CHEMBL70020

>  <standardized_canonical_smiles>  (18) 
Nc1c(Cl)cc(S(N)(=O)=O)cc1Cl

$$$$
1CNK_SO4_A_262
     RDKit          3D

  5  4  0  0  0  0  0  0  0  0999 V2000
   -5.9100    0.8420   17.2240 S   0  0  0  0  0  0  0  0  0  0  0  0
   -4.6490    1.6900   17.2120 O   0  0  0  0  0  0  0  0  0  0  0  0
   -5.4450   -0.2940   16.2400 O   0  0  0  0  0  0  0  0  0  0  0  0
   -6.0370    0.5930   18.6760 O   0  0  0  0  0  0  0  0  0  0  0  0
   -7.2300    1.4160   16.7660 O   0  0  0  0  0  0  0  0  0  0  0  0
  2  1  2  0
  3  1  2  0
  4  1  1  0
  5  1  1  0
M  CHG  2   4  -1   5  -1
A    1
S
A    2
O1
A    3
O2
A    4
O3
A    5
O4
M  END
>  <Id>  (19) 
1CNK_SO4_A_262

>  <ChainId>  (19) 
A

>  <AsymId>  (19) 
C

>  <SeqNum>  (19) 
262

>  <Name>  (19) 
SULFATE ION

>  <SystematicName>  (19) 
sulfate

>  <Synonyms>  (19) 


>  <Type>  (19) 
NON-POLYMER

>  <Formula>  (19) 
O4 S

>  <ObservedFormula>  (19) 
S O4

>  <MolecularWeight>  (19) 
96.063

>  <ModifiedDate>  (19) 
2011-06-04

>  <Parent>  (19) 


>  <OneLetterCode>  (19) 


>  <SubcomponentList>  (19) 


>  <AmbiguousFlag>  (19) 
N

>  <InsertionCode>  (19) 


>  <InstanceId>  (19) 
1CNK_SO4_A_262

>  <ChemCompId>  (19) 
SO4

>  <PdbId>  (19) 
1CNK

>  <ResidueNumber>  (19) 
262

>  <InChI>  (19) 
InChI=1S/H2O4S/c1-5(2,3)4/h(H2,1,2,3,4)/p-2

>  <InChIKey>  (19) 
QAOWNCQODCNURD-UHFFFAOYSA-L

>  <SMILES>  (19) 
[O-]S(=O)(=O)[O-]

>  <MissingHeavyAtoms>  (19) 
0

>  <Model>  (19) 
1

>  <AltIds>  (19) 


>  <pKI>  (19) 
9.52

>  <ChemblID>  (19) 
CHEMBL71611

>  <standardized_canonical_smiles>  (19) 
Nc1c(F)cc(S(=O)(=O)Nc2nnc(S(N)(=O)=O)s2)cc1Cl

$$$$
1CNB_BME_A_262
     RDKit          3D

  4  3  0  0  0  0  0  0  0  0999 V2000
   -5.5390    1.5010   13.0690 C   0  0  0  0  0  0  0  0  0  0  0  0
   -6.8030    0.8760   13.9870 C   0  0  0  0  0  0  0  0  0  0  0  0
   -5.6620    3.0440   13.7050 O   0  0  0  0  0  0  0  0  0  0  0  0
   -8.3450    0.9170   12.8570 S   0  0  0  0  0  0  0  0  0  0  0  0
  2  1  1  0
  3  1  1  0
  4  2  1  0
A    1
C1
A    2
C2
A    3
O1
A    4
S2
M  END
>  <Id>  (20) 
1CNB_BME_A_262

>  <ChainId>  (20) 
A

>  <AsymId>  (20) 
B

>  <SeqNum>  (20) 
262

>  <Name>  (20) 
BETA-MERCAPTOETHANOL

>  <SystematicName>  (20) 
2-sulfanylethanol

>  <Synonyms>  (20) 


>  <Type>  (20) 
NON-POLYMER

>  <Formula>  (20) 
C2 H6 O S

>  <ObservedFormula>  (20) 
C2 S O

>  <MolecularWeight>  (20) 
78.133

>  <ModifiedDate>  (20) 
2011-06-04

>  <Parent>  (20) 


>  <OneLetterCode>  (20) 


>  <SubcomponentList>  (20) 


>  <AmbiguousFlag>  (20) 
N

>  <InsertionCode>  (20) 


>  <InstanceId>  (20) 
1CNB_BME_A_262

>  <ChemCompId>  (20) 
BME

>  <PdbId>  (20) 
1CNB

>  <ResidueNumber>  (20) 
262

>  <InChI>  (20) 
InChI=1S/C2H6OS/c3-1-2-4/h3-4H,1-2H2

>  <InChIKey>  (20) 
DGVVWUTYPXICAM-UHFFFAOYSA-N

>  <MissingHeavyAtoms>  (20) 
0

>  <Model>  (20) 
1

>  <AltIds>  (20) 


>  <pKI>  (20) 
9.52

>  <ChemblID>  (20) 
CHEMBL71611

>  <standardized_canonical_smiles>  (20) 
Nc1c(F)cc(S(=O)(=O)Nc2nnc(S(N)(=O)=O)s2)cc1Cl

$$$$
1CNY_EG3_A_555
     RDKit          3D

 33 34  0  0  0  0  0  0  0  0999 V2000
   -6.0570    1.1260   17.0250 S   0  0  0  0  0  0  0  0  0  0  0  0
   -5.6570    1.0840   18.4380 O   0  0  0  0  0  0  0  0  0  0  0  0
   -7.4720    1.0420   16.8840 O   0  0  0  0  0  0  0  0  0  0  0  0
   -5.3550   -0.0420   16.4600 N   0  0  0  0  0  0  0  0  0  0  0  0
   -4.5530    4.6290   14.6940 C   0  0  0  0  0  0  0  0  0  0  0  0
   -3.7060    3.5860   15.0470 C   0  0  0  0  0  0  0  0  0  0  0  0
   -4.1460    2.5020   15.7530 C   0  0  0  0  0  0  0  0  0  0  0  0
   -5.4760    2.4600   16.1070 C   0  0  0  0  0  0  0  0  0  0  0  0
   -6.3240    3.4610   15.7530 C   0  0  0  0  0  0  0  0  0  0  0  0
   -5.8840    4.5870   15.0470 C   0  0  0  0  0  0  0  0  0  0  0  0
   -4.0700    5.6710   13.9870 C   0  0  0  0  0  0  0  0  0  0  0  0
   -4.6680    6.6720   13.4930 O   0  0  0  0  0  0  0  0  0  0  0  0
   -2.6360    5.8380   13.5630 N   0  0  0  0  0  0  0  0  0  0  0  0
   -2.3600    6.8800   12.5040 C   0  0  0  0  0  0  0  0  0  0  0  0
   -1.9520    8.2150   13.0690 C   0  0  0  0  0  0  0  0  0  0  0  0
   -1.1000    8.1730   14.0580 O   0  0  0  0  0  0  0  0  0  0  0  0
   -1.2600    9.0910   15.3290 C   0  0  0  0  0  0  0  0  0  0  0  0
   -1.1310   10.5500   14.8350 C   0  0  0  0  0  0  0  0  0  0  0  0
   -0.3360   11.3350   15.7840 O   0  0  0  0  0  0  0  0  0  0  0  0
    0.7430   12.0990   15.0450 C   0  0  0  0  0  0  0  0  0  0  0  0
    1.4770   12.9510   15.9490 C   0  0  0  0  0  0  0  0  0  0  0  0
    2.3130   13.8210   15.1390 N   0  0  0  0  0  0  0  0  0  0  0  0
    3.1130   14.7450   16.0470 C   0  0  0  0  0  0  0  0  0  0  0  0
    3.0030   14.6740   17.2760 O   0  0  0  0  0  0  0  0  0  0  0  0
    4.1370   15.6800   15.4470 C   0  0  0  0  0  0  0  0  0  0  0  0
    3.4680   16.9810   15.0790 N   0  0  0  0  0  0  0  0  0  0  0  0
    5.3480   15.9350   16.3490 C   0  0  0  0  0  0  0  0  0  0  0  0
    6.2940   16.9980   15.7530 C   0  0  0  0  0  0  0  0  0  0  0  0
    7.2000   16.5800   14.7590 C   0  0  0  0  0  0  0  0  0  0  0  0
    8.0720   17.5260   14.1870 C   0  0  0  0  0  0  0  0  0  0  0  0
    8.0340   18.8060   14.5990 C   0  0  0  0  0  0  0  0  0  0  0  0
    7.1290   19.2250   15.5950 C   0  0  0  0  0  0  0  0  0  0  0  0
    6.2890   18.2640   16.1870 C   0  0  0  0  0  0  0  0  0  0  0  0
  2  1  2  0
  3  1  2  0
  4  1  1  0
  8  1  1  0
  6  5  2  0
 10  5  1  0
 11  5  1  0
  7  6  1  0
  8  7  2  0
  9  8  1  0
 10  9  2  0
 12 11  2  0
 13 11  1  0
 14 13  1  0
 15 14  1  0
 16 15  1  0
 17 16  1  0
 18 17  1  0
 19 18  1  0
 20 19  1  0
 21 20  1  0
 22 21  1  0
 23 22  1  0
 24 23  2  0
 25 23  1  0
 26 25  1  0
 27 25  1  0
 28 27  1  0
 29 28  2  0
 33 28  1  0
 30 29  1  0
 31 30  2  0
 32 31  1  0
 33 32  2  0
A    1
S
A    2
O1
A    3
O2
A    4
N1
A    5
C1
A    6
C2
A    7
C3
A    8
C4
A    9
C5
A   10
C6
A   11
C7
A   12
O3
A   13
N2
A   14
C8
A   15
C9
A   16
O4
A   17
C10
A   18
C11
A   19
O5
A   20
C12
A   21
C13
A   22
N3
A   23
C14
A   24
O6
A   25
C15
A   26
N4
A   27
C16
A   28
C17
A   29
C18
A   30
C19
A   31
C20
A   32
C21
A   33
C22
M  END
>  <Id>  (21) 
1CNY_EG3_A_555

>  <ChainId>  (21) 
A

>  <AsymId>  (21) 
D

>  <SeqNum>  (21) 
555

>  <Name>  (21) 
PHENYLALANYLAMINODI(ETHYLOXY)ETHYL BENZENESULFONAMIDEAMINOCARBONYLBENZENESULFONAMIDE

>  <SystematicName>  (21) 
N-[2-[2-[2-[[(2S)-2-amino-3-phenyl-propanoyl]amino]ethoxy]ethoxy]ethyl]-4-sulfamoyl-benzamide

>  <Synonyms>  (21) 


>  <Type>  (21) 
NON-POLYMER

>  <Formula>  (21) 
C22 H30 N4 O6 S

>  <ObservedFormula>  (21) 
S C22 N4 O6

>  <MolecularWeight>  (21) 
478.562

>  <ModifiedDate>  (21) 
2011-06-04

>  <Parent>  (21) 


>  <OneLetterCode>  (21) 


>  <SubcomponentList>  (21) 


>  <AmbiguousFlag>  (21) 
N

>  <InsertionCode>  (21) 


>  <InstanceId>  (21) 
1CNY_EG3_A_555

>  <ChemCompId>  (21) 
EG3

>  <PdbId>  (21) 
1CNY

>  <ResidueNumber>  (21) 
555

>  <InChI>  (21) 
InChI=1S/C22H30N4O6S/c23-20(16-17-4-2-1-3-5-17)22(28)26-11-13-32-15-14-31-12-10-25-21(27)18-6-8-19(9-7-18)33(24,29)30/h1-9,20H,10-16,23H2,(H,25,27)(H,26,28)(H2,24,29,30)/t20-/m0/s1

>  <InChIKey>  (21) 
QNZDHHNWUXIYOH-FQEVSTJZSA-N

>  <SMILES>  (21) 
c1ccc(cc1)C[C@@H](C(=O)NCCOCCOCCNC(=O)c2ccc(cc2)S(=O)(=O)N)N

>  <MissingHeavyAtoms>  (21) 
0

>  <Model>  (21) 
1

>  <AltIds>  (21) 


>  <pKI>  (21) 
9.52

>  <ChemblID>  (21) 
CHEMBL71611

>  <standardized_canonical_smiles>  (21) 
Nc1c(F)cc(S(=O)(=O)Nc2nnc(S(N)(=O)=O)s2)cc1Cl

$$$$
2HOC_1CN_A_266
     RDKit          3D

 22 23  0  0  0  0  0  0  0  0999 V2000
    6.6340    7.1710   20.7790 S   0  0  0  0  0  0  0  0  0  0  0  0
    7.0200    5.9610   21.4220 O   0  0  0  0  0  0  0  0  0  0  0  0
    7.8050    7.8740   20.3360 O   0  0  0  0  0  0  0  0  0  0  0  0
    5.6920    6.8620   19.5330 N   0  0  0  0  0  0  0  0  0  0  0  0
    5.8200    9.4930   22.0430 N   0  0  0  0  0  0  0  0  0  0  0  0
    5.2180    9.8650   23.2440 N   0  0  0  0  0  0  0  0  0  0  0  0
    4.3350    7.6340   22.7270 S   0  0  0  0  0  0  0  0  0  0  0  0
    5.7260    8.1910   21.9200 C   0  0  0  0  0  0  0  0  0  0  0  0
    4.6960    8.8160   23.8820 C   0  0  0  0  0  0  0  0  0  0  0  0
    4.0130    8.8760   25.0510 N   0  0  0  0  0  0  0  0  0  0  0  0
    2.4740    9.0320   25.1630 S   0  0  0  0  0  0  0  0  0  0  0  0
    2.1340    8.9310   26.5540 O   0  0  0  0  0  0  0  0  0  0  0  0
    1.8160    7.9970   24.3830 O   0  0  0  0  0  0  0  0  0  0  0  0
    1.2570   10.7580   23.3360 C   0  0  0  0  0  0  0  0  0  0  0  0
    2.4050   11.7750   25.3150 C   0  0  0  0  0  0  0  0  0  0  0  0
    0.9030   12.0410   22.8920 C   0  0  0  0  0  0  0  0  0  0  0  0
    1.2830   13.2160   23.6380 C   0  0  0  0  0  0  0  0  0  0  0  0
    2.0410   13.0570   24.8580 C   0  0  0  0  0  0  0  0  0  0  0  0
    2.0120   10.6190   24.5540 C   0  0  0  0  0  0  0  0  0  0  0  0
    0.2360   12.1500   21.8140 F   0  0  0  0  0  0  0  0  0  0  0  0
    2.4240   14.2430   25.6780 Cl  0  0  0  0  0  0  0  0  0  0  0  0
    0.8960   14.4840   23.1870 N   0  0  0  0  0  0  0  0  0  0  0  0
  2  1  2  0
  3  1  2  0
  4  1  1  0
  8  1  1  0
  6  5  1  0
  8  5  2  0
  9  6  2  0
  8  7  1  0
  9  7  1  0
 10  9  1  0
 11 10  1  0
 12 11  2  0
 13 11  2  0
 19 11  1  0
 16 14  2  0
 19 14  1  0
 18 15  1  0
 19 15  2  0
 17 16  1  0
 20 16  1  0
 18 17  2  0
 22 17  1  0
 21 18  1  0
A    1
S1
A    2
O1
A    3
O2
A    4
N1
A    5
N2
A    6
N3
A    7
S2
A    8
C1
A    9
C2
A   10
N4
A   11
S3
A   12
O3
A   13
O4
A   14
C4
A   15
C8
A   16
C5
A   17
C7
A   18
C6
A   19
C3
A   20
F
A   21
CL
A   22
N5
M  END
>  <Id>  (22) 
2HOC_1CN_A_266

>  <ChainId>  (22) 
A

>  <AsymId>  (22) 
D

>  <SeqNum>  (22) 
266

>  <Name>  (22) 
5-{[(4-AMINO-3-CHLORO-5-FLUOROPHENYL)SULFONYL]AMINO}-1,3,4-THIADIAZOLE-2-SULFONAMIDE

>  <SystematicName>  (22) 
5-[(4-amino-3-chloro-5-fluoro-phenyl)sulfonylamino]-1,3,4-thiadiazole-2-sulfonamide

>  <Synonyms>  (22) 


>  <Type>  (22) 
NON-POLYMER

>  <Formula>  (22) 
C8 H7 Cl F N5 O4 S3

>  <ObservedFormula>  (22) 
S3 C8 F Cl N5 O4

>  <MolecularWeight>  (22) 
387.819

>  <ModifiedDate>  (22) 
2011-06-04

>  <Parent>  (22) 


>  <OneLetterCode>  (22) 


>  <SubcomponentList>  (22) 


>  <AmbiguousFlag>  (22) 
N

>  <InsertionCode>  (22) 


>  <InstanceId>  (22) 
2HOC_1CN_A_266

>  <ChemCompId>  (22) 
1CN

>  <PdbId>  (22) 
2HOC

>  <ResidueNumber>  (22) 
266

>  <InChI>  (22) 
InChI=1S/C8H7ClFN5O4S3/c9-4-1-3(2-5(10)6(4)11)22(18,19)15-7-13-14-8(20-7)21(12,16)17/h1-2H,11H2,(H,13,15)(H2,12,16,17)

>  <InChIKey>  (22) 
HOLJYLOVIHBQHO-UHFFFAOYSA-N

>  <SMILES>  (22) 
c1c(cc(c(c1F)N)Cl)S(=O)(=O)Nc2nnc(s2)S(=O)(=O)N

>  <MissingHeavyAtoms>  (22) 
0

>  <Model>  (22) 
1

>  <AltIds>  (22) 


>  <pKI>  (22) 
9.52

>  <ChemblID>  (22) 
CHEMBL71611

>  <standardized_canonical_smiles>  (22) 
Nc1c(F)cc(S(=O)(=O)Nc2nnc(S(N)(=O)=O)s2)cc1Cl

$$$$
1CNX_EG2_A_555
     RDKit          3D

 22 22  0  0  0  0  0  0  0  0999 V2000
   -5.9900    0.9170   17.0960 S   0  0  0  0  0  0  0  0  0  0  0  0
   -5.5100    0.9170   18.3670 O   0  0  0  0  0  0  0  0  0  0  0  0
   -7.4480    0.9590   16.9540 O   0  0  0  0  0  0  0  0  0  0  0  0
   -5.3370   -0.2090   16.3890 N   0  0  0  0  0  0  0  0  0  0  0  0
   -4.7060    4.3780   14.6230 C   0  0  0  0  0  0  0  0  0  0  0  0
   -3.7550    3.3780   14.9060 C   0  0  0  0  0  0  0  0  0  0  0  0
   -4.2130    2.2930   15.6830 C   0  0  0  0  0  0  0  0  0  0  0  0
   -5.5380    2.2100   16.1770 C   0  0  0  0  0  0  0  0  0  0  0  0
   -6.4280    3.2530   15.8240 C   0  0  0  0  0  0  0  0  0  0  0  0
   -6.0120    4.3370   15.0470 C   0  0  0  0  0  0  0  0  0  0  0  0
   -4.3140    5.5040   13.7750 C   0  0  0  0  0  0  0  0  0  0  0  0
   -4.9910    6.4220   13.4220 O   0  0  0  0  0  0  0  0  0  0  0  0
   -2.9650    5.5460   13.3510 N   0  0  0  0  0  0  0  0  0  0  0  0
   -2.4460    6.5890   12.5040 C   0  0  0  0  0  0  0  0  0  0  0  0
   -2.2090    7.9230   13.0690 C   0  0  0  0  0  0  0  0  0  0  0  0
   -1.3070    7.8810   14.1990 O   0  0  0  0  0  0  0  0  0  0  0  0
   -1.4860    9.0070   15.0470 C   0  0  0  0  0  0  0  0  0  0  0  0
   -0.3810   10.0080   14.9060 C   0  0  0  0  0  0  0  0  0  0  0  0
   -0.8170   11.2620   15.5020 O   0  0  0  0  0  0  0  0  0  0  0  0
   -0.1640   12.2980   14.8090 C   0  0  0  0  0  0  0  0  0  0  0  0
    0.1490   13.3850   15.7050 C   0  0  0  0  0  0  0  0  0  0  0  0
    0.3890   14.6150   14.9720 N   0  0  0  0  0  0  0  0  0  0  0  0
  2  1  2  0
  3  1  2  0
  4  1  1  0
  8  1  1  0
  6  5  2  0
 10  5  1  0
 11  5  1  0
  7  6  1  0
  8  7  2  0
  9  8  1  0
 10  9  2  0
 12 11  2  0
 13 11  1  0
 14 13  1  0
 15 14  1  0
 16 15  1  0
 17 16  1  0
 18 17  1  0
 19 18  1  0
 20 19  1  0
 21 20  1  0
 22 21  1  0
A    1
S
A    2
O1
A    3
O2
A    4
N1
A    5
C1
A    6
C2
A    7
C3
A    8
C4
A    9
C5
A   10
C6
A   11
C7
A   12
O3
A   13
N2
A   14
C8
A   15
C9
A   16
O4
A   17
C10
A   18
C11
A   19
O5
A   20
C12
A   21
C13
A   22
N3
M  END
>  <Id>  (23) 
1CNX_EG2_A_555

>  <ChainId>  (23) 
A

>  <AsymId>  (23) 
D

>  <SeqNum>  (23) 
555

>  <Name>  (23) 
AMINODI(ETHYLOXY)ETHYLAMINOCARBONYLBENZENESULFONAMIDE

>  <SystematicName>  (23) 
N-[2-[2-(2-aminoethoxy)ethoxy]ethyl]-4-sulfamoyl-benzamide

>  <Synonyms>  (23) 


>  <Type>  (23) 
NON-POLYMER

>  <Formula>  (23) 
C13 H21 N3 O5 S

>  <ObservedFormula>  (23) 
S C13 N3 O5

>  <MolecularWeight>  (23) 
331.388

>  <ModifiedDate>  (23) 
2011-06-04

>  <Parent>  (23) 


>  <OneLetterCode>  (23) 


>  <SubcomponentList>  (23) 


>  <AmbiguousFlag>  (23) 
N

>  <InsertionCode>  (23) 


>  <InstanceId>  (23) 
1CNX_EG2_A_555

>  <ChemCompId>  (23) 
EG2

>  <PdbId>  (23) 
1CNX

>  <ResidueNumber>  (23) 
555

>  <InChI>  (23) 
InChI=1S/C13H21N3O5S/c14-5-7-20-9-10-21-8-6-16-13(17)11-1-3-12(4-2-11)22(15,18)19/h1-4H,5-10,14H2,(H,16,17)(H2,15,18,19)

>  <InChIKey>  (23) 
QGGYVKRXFQLYQD-UHFFFAOYSA-N

>  <SMILES>  (23) 
c1cc(ccc1C(=O)NCCOCCOCCN)S(=O)(=O)N

>  <MissingHeavyAtoms>  (23) 
0

>  <Model>  (23) 
1

>  <AltIds>  (23) 


>  <pKI>  (23) 
9.52

>  <ChemblID>  (23) 
CHEMBL71611

>  <standardized_canonical_smiles>  (23) 
Nc1c(F)cc(S(=O)(=O)Nc2nnc(S(N)(=O)=O)s2)cc1Cl

$$$$
1CNW_EG1_A_555
     RDKit          3D

 26 26  0  0  0  0  0  0  0  0999 V2000
   -6.0330    0.9590   17.0960 S   0  0  0  0  0  0  0  0  0  0  0  0
   -5.5710    0.9590   18.4380 O   0  0  0  0  0  0  0  0  0  0  0  0
   -7.4660    1.0840   17.0250 O   0  0  0  0  0  0  0  0  0  0  0  0
   -5.4650   -0.1670   16.3890 N   0  0  0  0  0  0  0  0  0  0  0  0
   -4.6630    4.4200   14.6230 C   0  0  0  0  0  0  0  0  0  0  0  0
   -3.7550    3.3360   14.9060 C   0  0  0  0  0  0  0  0  0  0  0  0
   -4.2130    2.2520   15.6830 C   0  0  0  0  0  0  0  0  0  0  0  0
   -5.5130    2.2520   16.2480 C   0  0  0  0  0  0  0  0  0  0  0  0
   -6.3610    3.3360   15.8950 C   0  0  0  0  0  0  0  0  0  0  0  0
   -5.9450    4.4200   15.1180 C   0  0  0  0  0  0  0  0  0  0  0  0
   -4.2470    5.5460   13.8460 C   0  0  0  0  0  0  0  0  0  0  0  0
   -4.9420    6.5050   13.5630 O   0  0  0  0  0  0  0  0  0  0  0  0
   -3.0270    5.5460   13.4220 N   0  0  0  0  0  0  0  0  0  0  0  0
   -2.4210    6.5890   12.5740 C   0  0  0  0  0  0  0  0  0  0  0  0
   -2.2030    7.9230   13.2100 C   0  0  0  0  0  0  0  0  0  0  0  0
   -1.1370    7.7980   14.1990 O   0  0  0  0  0  0  0  0  0  0  0  0
   -1.4310    8.6740   15.3290 C   0  0  0  0  0  0  0  0  0  0  0  0
   -0.9970   10.0500   14.9760 C   0  0  0  0  0  0  0  0  0  0  0  0
   -1.5970   11.0290   15.8440 O   0  0  0  0  0  0  0  0  0  0  0  0
   -1.1400   12.3040   15.4080 C   0  0  0  0  0  0  0  0  0  0  0  0
    0.1110   12.1830   14.6990 C   0  0  0  0  0  0  0  0  0  0  0  0
    0.9100   13.3750   14.9320 N   0  0  0  0  0  0  0  0  0  0  0  0
    2.1780   13.2910   14.2260 C   0  0  0  0  0  0  0  0  0  0  0  0
    2.5250   12.2270   13.7440 O   0  0  0  0  0  0  0  0  0  0  0  0
    3.0130   14.6000   14.0910 C   0  0  0  0  0  0  0  0  0  0  0  0
    2.1970   15.6690   14.7760 N   0  0  0  0  0  0  0  0  0  0  0  0
  2  1  2  0
  3  1  2  0
  4  1  1  0
  8  1  1  0
  6  5  2  0
 10  5  1  0
 11  5  1  0
  7  6  1  0
  8  7  2  0
  9  8  1  0
 10  9  2  0
 12 11  2  0
 13 11  1  0
 14 13  1  0
 15 14  1  0
 16 15  1  0
 17 16  1  0
 18 17  1  0
 19 18  1  0
 20 19  1  0
 21 20  1  0
 22 21  1  0
 23 22  1  0
 24 23  2  0
 25 23  1  0
 26 25  1  0
A    1
S
A    2
O1
A    3
O2
A    4
N1
A    5
C1
A    6
C2
A    7
C3
A    8
C4
A    9
C5
A   10
C6
A   11
C7
A   12
O3
A   13
N2
A   14
C8
A   15
C9
A   16
O4
A   17
C10
A   18
C11
A   19
O5
A   20
C12
A   21
C13
A   22
N3
A   23
C14
A   24
O6
A   25
C15
A   26
N4
M  END
>  <Id>  (24) 
1CNW_EG1_A_555

>  <ChainId>  (24) 
A

>  <AsymId>  (24) 
D

>  <SeqNum>  (24) 
555

>  <Name>  (24) 
AMINOMETHYLENECARBONYLAMINODI(ETHYLOXY)ETHYLAMINOCARBONYLBENZENESULFONAMIDE

>  <SystematicName>  (24) 
N-[2-[2-[2-(2-aminoethanoylamino)ethoxy]ethoxy]ethyl]-4-sulfamoyl-benzamide

>  <Synonyms>  (24) 


>  <Type>  (24) 
NON-POLYMER

>  <Formula>  (24) 
C15 H24 N4 O6 S

>  <ObservedFormula>  (24) 
S C15 N4 O6

>  <MolecularWeight>  (24) 
388.439

>  <ModifiedDate>  (24) 
2011-06-04

>  <Parent>  (24) 


>  <OneLetterCode>  (24) 


>  <SubcomponentList>  (24) 


>  <AmbiguousFlag>  (24) 
N

>  <InsertionCode>  (24) 


>  <InstanceId>  (24) 
1CNW_EG1_A_555

>  <ChemCompId>  (24) 
EG1

>  <PdbId>  (24) 
1CNW

>  <ResidueNumber>  (24) 
555

>  <InChI>  (24) 
InChI=1S/C15H24N4O6S/c16-11-14(20)18-5-7-24-9-10-25-8-6-19-15(21)12-1-3-13(4-2-12)26(17,22)23/h1-4H,5-11,16H2,(H,18,20)(H,19,21)(H2,17,22,23)

>  <InChIKey>  (24) 
OIKKGRHOXPAPMW-UHFFFAOYSA-N

>  <SMILES>  (24) 
c1cc(ccc1C(=O)NCCOCCOCCNC(=O)CN)S(=O)(=O)N

>  <MissingHeavyAtoms>  (24) 
0

>  <Model>  (24) 
1

>  <AltIds>  (24) 


>  <pKI>  (24) 
9.52

>  <ChemblID>  (24) 
CHEMBL71611

>  <standardized_canonical_smiles>  (24) 
Nc1c(F)cc(S(=O)(=O)Nc2nnc(S(N)(=O)=O)s2)cc1Cl

$$$$
3T5U_A09_A_266
     RDKit          3D

 11 11  0  0  0  0  0  0  0  0999 V2000
   -7.8980    8.7320    7.6240 C   0  0  0  0  0  0  0  0  0  0  0  0
   -6.4030    6.9240    6.1350 N   0  0  0  0  0  0  0  0  0  0  0  0
   -7.8070    6.1790    8.0430 O   0  0  0  0  0  0  0  0  0  0  0  0
   -6.9300    7.2490    7.6630 S   0  0  0  0  0  0  0  0  0  0  0  0
   -7.2520    9.9980    7.6560 C   0  0  0  0  0  0  0  0  0  0  0  0
   -5.7770    7.5170    8.4770 O   0  0  0  0  0  0  0  0  0  0  0  0
   -8.0450   11.1660    7.6240 C   0  0  0  0  0  0  0  0  0  0  0  0
   -5.6710    8.0230    5.6100 O   0  0  0  0  0  0  0  0  0  0  0  0
   -9.4420   11.0790    7.5610 C   0  0  0  0  0  0  0  0  0  0  0  0
  -10.0690    9.8290    7.5300 C   0  0  0  0  0  0  0  0  0  0  0  0
   -9.3120    8.6410    7.5610 C   0  0  0  0  0  0  0  0  0  0  0  0
  4  1  1  0
  5  1  2  0
 11  1  1  0
  4  2  1  0
  8  2  1  0
  4  3  2  0
  6  4  2  0
  7  5  1  0
  9  7  2  0
 10  9  1  0
 11 10  2  0
A    1
C1
A    2
N1
A    3
O1
A    4
S1
A    5
C2
A    6
O2
A    7
C3
A    8
O3
A    9
C4
A   10
C5
A   11
C6
M  END
>  <Id>  (25) 
3T5U_A09_A_266

>  <ChainId>  (25) 
A

>  <AsymId>  (25) 
F

>  <SeqNum>  (25) 
266

>  <Name>  (25) 
N-hydroxybenzenesulfonamide

>  <SystematicName>  (25) 
N-oxidanylbenzenesulfonamide

>  <Synonyms>  (25) 


>  <Type>  (25) 
NON-POLYMER

>  <Formula>  (25) 
C6 H7 N O3 S

>  <ObservedFormula>  (25) 
C6 S N O3

>  <MolecularWeight>  (25) 
173.19

>  <ModifiedDate>  (25) 
2012-06-15

>  <Parent>  (25) 


>  <OneLetterCode>  (25) 


>  <SubcomponentList>  (25) 


>  <AmbiguousFlag>  (25) 
N

>  <InsertionCode>  (25) 


>  <InstanceId>  (25) 
3T5U_A09_A_266

>  <ChemCompId>  (25) 
A09

>  <PdbId>  (25) 
3T5U

>  <ResidueNumber>  (25) 
266

>  <InChI>  (25) 
InChI=1S/C6H7NO3S/c8-7-11(9,10)6-4-2-1-3-5-6/h1-5,7-8H

>  <InChIKey>  (25) 
BRMDATNYMUMZLN-UHFFFAOYSA-N

>  <SMILES>  (25) 
c1ccc(cc1)S(=O)(=O)NO

>  <MissingHeavyAtoms>  (25) 
0

>  <Model>  (25) 
1

>  <AltIds>  (25) 


>  <pKI>  (25) 
7.59

>  <ChemblID>  (25) 
CHEMBL55310

>  <standardized_canonical_smiles>  (25) 
O=S(=O)(NO)c1ccccc1

$$$$
3DBU_D8W_A_301
     RDKit          3D

 19 20  0  0  0  0  0  0  0  0999 V2000
   -3.9230    1.7500   15.0500 N   0  0  0  0  0  0  0  0  0  0  0  0
   -4.5930    3.6580   13.9330 C   0  0  0  0  0  0  0  0  0  0  0  0
   -3.6410    2.6990   14.0260 N   0  0  0  0  0  0  0  0  0  0  0  0
   -5.1670    6.0530   13.1690 S   0  0  0  0  0  0  0  0  0  0  0  0
   -5.0860    2.0190   15.6820 C   0  0  0  0  0  0  0  0  0  0  0  0
   -5.7080    6.4880   11.8610 O   0  0  0  0  0  0  0  0  0  0  0  0
   -3.7420    7.3070   14.8980 C   0  0  0  0  0  0  0  0  0  0  0  0
   -5.8550    0.9830   16.7270 S   0  0  0  0  0  0  0  0  0  0  0  0
   -5.2900    1.2210   18.0210 O   0  0  0  0  0  0  0  0  0  0  0  0
   -1.8840    8.6900   14.2660 C   0  0  0  0  0  0  0  0  0  0  0  0
   -2.1030    8.4210   12.9200 C   0  0  0  0  0  0  0  0  0  0  0  0
   -3.1460    7.5680   12.5600 C   0  0  0  0  0  0  0  0  0  0  0  0
   -5.5030   -0.5170   16.2880 N   0  0  0  0  0  0  0  0  0  0  0  0
   -7.2460    1.2080   16.6850 O   0  0  0  0  0  0  0  0  0  0  0  0
   -3.9410    7.0250   13.5560 C   0  0  0  0  0  0  0  0  0  0  0  0
   -4.5820    4.6730   13.0350 N   0  0  0  0  0  0  0  0  0  0  0  0
   -5.8540    3.4340   15.0680 S   0  0  0  0  0  0  0  0  0  0  0  0
   -2.6920    8.1510   15.2590 C   0  0  0  0  0  0  0  0  0  0  0  0
   -6.1580    6.2660   14.2320 O   0  0  0  0  0  0  0  0  0  0  0  0
  4 19  2  0
 10 11  2  0
  7 18  2  0
 11 12  1  0
  1  5  2  0
  8 14  2  0
  8  9  2  0
 17  5  1  0
  5  8  1  0
 18 10  1  0
 16  2  1  0
  2  3  2  0
 15  4  1  0
  4 16  1  0
  8 13  1  0
  3  1  1  0
  2 17  1  0
  4  6  2  0
 12 15  2  0
  7 15  1  0
A    1
N3
A    2
C7
A    3
N2
A    4
S1
A    5
C8
A    6
O2
A    7
C1
A    8
S3
A    9
O3
A   10
C3
A   11
C4
A   12
C5
A   13
N4
A   14
O4
A   15
C6
A   16
N1
A   17
S2
A   18
C2
A   19
O1
M  END
>  <InstanceId>  (26) 
3DBU_D8W_A_301

>  <ChemCompId>  (26) 
D8W

>  <PdbId>  (26) 
3DBU

>  <ChainId>  (26) 
A

>  <ResidueNumber>  (26) 
301

>  <InsertionCode>  (26) 


>  <Model>  (26) 
1

>  <AltIds>  (26) 


>  <MissingHeavyAtoms>  (26) 
0

>  <ObservedFormula>  (26) 
C8 N4 O4 S3

>  <AsymId>  (26) 
C

>  <SeqNum>  (26) 
301

>  <Name>  (26) 
5-[(phenylsulfonyl)amino]-1,3,4-thiadiazole-2-sulfonamide

>  <SystematicName>  (26) 
5-(phenylsulfonylamino)-1,3,4-thiadiazole-2-sulfonamide

>  <Synonyms>  (26) 


>  <Type>  (26) 
NON-POLYMER

>  <Formula>  (26) 
C8 H8 N4 O4 S3

>  <MolecularWeight>  (26) 
320.369

>  <ModifiedDate>  (26) 
2011-06-04

>  <Parent>  (26) 


>  <OneLetterCode>  (26) 


>  <SubcomponentList>  (26) 


>  <AmbiguousFlag>  (26) 
N

>  <InChI>  (26) 
null

>  <InChIKey>  (26) 
null

>  <SMILES>  (26) 
c1ccc(cc1)S(=O)(=O)Nc2nnc(s2)S(=O)(=O)N

>  <pKI>  (26) 
8.05

>  <ChemblID>  (26) 
CHEMBL73962

>  <standardized_canonical_smiles>  (26) 
NS(=O)(=O)c1nnc(NS(=O)(=O)c2ccccc2)s1

$$$$
3D8W_D8W_A_301
     RDKit          3D

 19 20  0  0  0  0  0  0  0  0999 V2000
   -3.7480    7.2170   14.9300 C   0  0  0  0  0  0  0  0  0  0  0  0
   -2.6520    8.0100   15.2590 C   0  0  0  0  0  0  0  0  0  0  0  0
   -1.8770    8.5300   14.2250 C   0  0  0  0  0  0  0  0  0  0  0  0
   -2.1710    8.2920   12.8860 C   0  0  0  0  0  0  0  0  0  0  0  0
   -3.2660    7.4850   12.5570 C   0  0  0  0  0  0  0  0  0  0  0  0
   -4.0140    6.9550   13.5950 C   0  0  0  0  0  0  0  0  0  0  0  0
   -5.3140    6.0650   13.2440 S   0  0  0  0  0  0  0  0  0  0  0  0
   -6.2340    6.2910   14.3440 O   0  0  0  0  0  0  0  0  0  0  0  0
   -5.9170    6.5480   11.9750 O   0  0  0  0  0  0  0  0  0  0  0  0
   -4.7700    4.6710   13.0150 N   0  0  0  0  0  0  0  0  0  0  0  0
   -4.7940    3.6140   13.8680 C   0  0  0  0  0  0  0  0  0  0  0  0
   -5.9290    3.4400   15.1330 S   0  0  0  0  0  0  0  0  0  0  0  0
   -3.9190    2.5820   13.7980 N   0  0  0  0  0  0  0  0  0  0  0  0
   -4.1670    1.6230   14.8170 N   0  0  0  0  0  0  0  0  0  0  0  0
   -5.2090    1.9380   15.6060 C   0  0  0  0  0  0  0  0  0  0  0  0
   -5.9160    0.9030   16.7060 S   0  0  0  0  0  0  0  0  0  0  0  0
   -5.3520    1.2210   17.9840 O   0  0  0  0  0  0  0  0  0  0  0  0
   -7.3050    1.1480   16.6630 O   0  0  0  0  0  0  0  0  0  0  0  0
   -5.5330   -0.5790   16.2990 N   0  0  0  0  0  0  0  0  0  0  0  0
  2  1  2  0
  6  1  1  0
  3  2  1  0
  4  3  2  0
  5  4  1  0
  6  5  2  0
  7  6  1  0
  8  7  2  0
  9  7  2  0
 10  7  1  0
 11 10  1  0
 12 11  1  0
 13 11  2  0
 15 12  1  0
 14 13  1  0
 15 14  2  0
 16 15  1  0
 17 16  2  0
 18 16  2  0
 19 16  1  0
A    1
C1
A    2
C2
A    3
C3
A    4
C4
A    5
C5
A    6
C6
A    7
S1
A    8
O1
A    9
O2
A   10
N1
A   11
C7
A   12
S2
A   13
N2
A   14
N3
A   15
C8
A   16
S3
A   17
O3
A   18
O4
A   19
N4
M  END
>  <Id>  (27) 
3D8W_D8W_A_301

>  <ChainId>  (27) 
A

>  <AsymId>  (27) 
C

>  <SeqNum>  (27) 
301

>  <Name>  (27) 
5-[(phenylsulfonyl)amino]-1,3,4-thiadiazole-2-sulfonamide

>  <SystematicName>  (27) 
5-(phenylsulfonylamino)-1,3,4-thiadiazole-2-sulfonamide

>  <Synonyms>  (27) 


>  <Type>  (27) 
NON-POLYMER

>  <Formula>  (27) 
C8 H8 N4 O4 S3

>  <ObservedFormula>  (27) 
C8 S3 N4 O4

>  <MolecularWeight>  (27) 
320.369

>  <ModifiedDate>  (27) 
2011-06-04

>  <Parent>  (27) 


>  <OneLetterCode>  (27) 


>  <SubcomponentList>  (27) 


>  <AmbiguousFlag>  (27) 
N

>  <InsertionCode>  (27) 


>  <InstanceId>  (27) 
3D8W_D8W_A_301

>  <ChemCompId>  (27) 
D8W

>  <PdbId>  (27) 
3D8W

>  <ResidueNumber>  (27) 
301

>  <InChI>  (27) 
InChI=1S/C8H8N4O4S3/c9-18(13,14)8-11-10-7(17-8)12-19(15,16)6-4-2-1-3-5-6/h1-5H,(H,10,12)(H2,9,13,14)

>  <InChIKey>  (27) 
PWDGTQXZLNDOKS-UHFFFAOYSA-N

>  <SMILES>  (27) 
c1ccc(cc1)S(=O)(=O)Nc2nnc(s2)S(=O)(=O)N

>  <MissingHeavyAtoms>  (27) 
0

>  <Model>  (27) 
1

>  <AltIds>  (27) 


>  <pKI>  (27) 
8.05

>  <ChemblID>  (27) 
CHEMBL73962

>  <standardized_canonical_smiles>  (27) 
NS(=O)(=O)c1nnc(NS(=O)(=O)c2ccccc2)s1

$$$$
5JEG_EVF_B_303
     RDKit          3D

 13 14  0  0  0  0  0  0  0  0999 V2000
   30.7160   -2.1820   14.5130 N   0  0  0  0  0  0  0  0  0  0  0  0
   31.7550   -1.0370   14.3530 S   0  0  0  0  0  0  0  0  0  0  0  0
   31.2740    0.2420   13.9130 O   0  0  0  0  0  0  0  0  0  0  0  0
   33.4250   -3.2960   13.1610 S   0  0  0  0  0  0  0  0  0  0  0  0
   32.8330   -1.6370   13.2120 C   0  0  0  0  0  0  0  0  0  0  0  0
   32.5030   -0.8330   15.6260 O   0  0  0  0  0  0  0  0  0  0  0  0
   33.3110   -0.8120   12.2190 N   0  0  0  0  0  0  0  0  0  0  0  0
   34.9190   -0.9910   10.2880 C   0  0  0  0  0  0  0  0  0  0  0  0
   35.7170   -1.8780    9.5790 C   0  0  0  0  0  0  0  0  0  0  0  0
   35.8580   -3.2160    9.9700 C   0  0  0  0  0  0  0  0  0  0  0  0
   35.1810   -3.7360   11.0820 C   0  0  0  0  0  0  0  0  0  0  0  0
   34.3440   -2.8830   11.8080 C   0  0  0  0  0  0  0  0  0  0  0  0
   34.1980   -1.4530   11.3860 C   0  0  0  0  0  0  0  0  0  0  0  0
  2  1  1  0
  3  2  2  0
  5  2  1  0
  6  2  2  0
  5  4  1  0
 12  4  1  0
  7  5  2  0
 13  7  1  0
  9  8  1  0
 13  8  2  0
 10  9  2  0
 11 10  1  0
 12 11  2  0
 13 12  1  0
A    1
N
A    2
S
A    3
O1
A    4
S1
A    5
C2
A    6
O2
A    7
N3
A    8
C4
A    9
C5
A   10
C6
A   11
C7
A   12
C8
A   13
C9
M  END
>  <Id>  (28) 
5JEG_EVF_B_303

>  <ChainId>  (28) 
B

>  <AsymId>  (28) 
D

>  <SeqNum>  (28) 
303

>  <Name>  (28) 
1,3-benzothiazole-2-sulfonamide

>  <SystematicName>  (28) 
1,3-benzothiazole-2-sulfonamide

>  <Synonyms>  (28) 


>  <Type>  (28) 
NON-POLYMER

>  <Formula>  (28) 
C7 H6 N2 O2 S2

>  <ObservedFormula>  (28) 
S2 C7 N2 O2

>  <MolecularWeight>  (28) 
214.265

>  <ModifiedDate>  (28) 
2011-12-16

>  <Parent>  (28) 


>  <OneLetterCode>  (28) 


>  <SubcomponentList>  (28) 


>  <AmbiguousFlag>  (28) 
N

>  <InsertionCode>  (28) 


>  <InstanceId>  (28) 
5JEG_EVF_B_303

>  <ChemCompId>  (28) 
EVF

>  <PdbId>  (28) 
5JEG

>  <ResidueNumber>  (28) 
303

>  <InChI>  (28) 
InChI=1S/C7H6N2O2S2/c8-13(10,11)7-9-5-3-1-2-4-6(5)12-7/h1-4H,(H2,8,10,11)

>  <InChIKey>  (28) 
SDYMYAFSQACTQP-UHFFFAOYSA-N

>  <SMILES>  (28) 
c1ccc2c(c1)nc(s2)S(=O)(=O)N

>  <MissingHeavyAtoms>  (28) 
0

>  <Model>  (28) 
1

>  <AltIds>  (28) 


>  <pKI>  (28) 
7.52

>  <ChemblID>  (28) 
CHEMBL168552

>  <standardized_canonical_smiles>  (28) 
NS(=O)(=O)c1nc2ccccc2s1

$$$$
5JEH_EVF_B_302
     RDKit          3D

 13 14  0  0  0  0  0  0  0  0999 V2000
   15.5820   -0.4350   16.1380 N   0  0  0  0  0  0  0  0  0  0  0  0
   15.0210    0.9760   16.7760 S   0  0  0  0  0  0  0  0  0  0  0  0
   13.5950    1.0400   16.6090 O   0  0  0  0  0  0  0  0  0  0  0  0
   14.8040    3.4420   15.2350 S   0  0  0  0  0  0  0  0  0  0  0  0
   15.7030    2.2580   16.0400 C   0  0  0  0  0  0  0  0  0  0  0  0
   15.4060    1.1580   18.1200 O   0  0  0  0  0  0  0  0  0  0  0  0
   17.0580    2.4900   16.1200 N   0  0  0  0  0  0  0  0  0  0  0  0
   18.6940    4.2760   15.2930 C   0  0  0  0  0  0  0  0  0  0  0  0
   18.7170    5.4590   14.5340 C   0  0  0  0  0  0  0  0  0  0  0  0
   17.5640    6.0820   14.0080 C   0  0  0  0  0  0  0  0  0  0  0  0
   16.2940    5.5040   14.1740 C   0  0  0  0  0  0  0  0  0  0  0  0
   16.2070    4.3110   14.9080 C   0  0  0  0  0  0  0  0  0  0  0  0
   17.4290    3.6610   15.4880 C   0  0  0  0  0  0  0  0  0  0  0  0
  2  1  1  0
  3  2  2  0
  5  2  1  0
  6  2  2  0
  5  4  1  0
 12  4  1  0
  7  5  2  0
 13  7  1  0
  9  8  1  0
 13  8  2  0
 10  9  2  0
 11 10  1  0
 12 11  2  0
 13 12  1  0
A    1
N
A    2
S
A    3
O1
A    4
S1
A    5
C2
A    6
O2
A    7
N3
A    8
C4
A    9
C5
A   10
C6
A   11
C7
A   12
C8
A   13
C9
M  END
>  <Id>  (29) 
5JEH_EVF_B_302

>  <ChainId>  (29) 
B

>  <AsymId>  (29) 
C

>  <SeqNum>  (29) 
302

>  <Name>  (29) 
1,3-benzothiazole-2-sulfonamide

>  <SystematicName>  (29) 
1,3-benzothiazole-2-sulfonamide

>  <Synonyms>  (29) 


>  <Type>  (29) 
NON-POLYMER

>  <Formula>  (29) 
C7 H6 N2 O2 S2

>  <ObservedFormula>  (29) 
S2 C7 N2 O2

>  <MolecularWeight>  (29) 
214.265

>  <ModifiedDate>  (29) 
2011-12-16

>  <Parent>  (29) 


>  <OneLetterCode>  (29) 


>  <SubcomponentList>  (29) 


>  <AmbiguousFlag>  (29) 
N

>  <InsertionCode>  (29) 


>  <InstanceId>  (29) 
5JEH_EVF_B_302

>  <ChemCompId>  (29) 
EVF

>  <PdbId>  (29) 
5JEH

>  <ResidueNumber>  (29) 
302

>  <InChI>  (29) 
InChI=1S/C7H6N2O2S2/c8-13(10,11)7-9-5-3-1-2-4-6(5)12-7/h1-4H,(H2,8,10,11)

>  <InChIKey>  (29) 
SDYMYAFSQACTQP-UHFFFAOYSA-N

>  <SMILES>  (29) 
c1ccc2c(c1)nc(s2)S(=O)(=O)N

>  <MissingHeavyAtoms>  (29) 
0

>  <Model>  (29) 
1

>  <AltIds>  (29) 


>  <pKI>  (29) 
7.52

>  <ChemblID>  (29) 
CHEMBL168552

>  <standardized_canonical_smiles>  (29) 
NS(=O)(=O)c1nc2ccccc2s1

$$$$
5JGS_EVF_B_302
     RDKit          3D

 13 14  0  0  0  0  0  0  0  0999 V2000
   30.6220   -1.9640   14.4500 N   0  0  0  0  0  0  0  0  0  0  0  0
   31.7580   -0.8580   14.1900 S   0  0  0  0  0  0  0  0  0  0  0  0
   32.5010   -0.6370   15.4280 O   0  0  0  0  0  0  0  0  0  0  0  0
   33.3760   -3.2340   12.9510 S   0  0  0  0  0  0  0  0  0  0  0  0
   32.8860   -1.5280   12.9210 C   0  0  0  0  0  0  0  0  0  0  0  0
   31.2200    0.3800   13.7110 O   0  0  0  0  0  0  0  0  0  0  0  0
   33.4200   -0.8820   11.9250 N   0  0  0  0  0  0  0  0  0  0  0  0
   34.9850   -1.2850    9.9320 C   0  0  0  0  0  0  0  0  0  0  0  0
   35.7550   -2.1570    9.2030 C   0  0  0  0  0  0  0  0  0  0  0  0
   35.8530   -3.4960    9.5960 C   0  0  0  0  0  0  0  0  0  0  0  0
   35.1700   -3.9300   10.7260 C   0  0  0  0  0  0  0  0  0  0  0  0
   34.3560   -3.0680   11.5020 C   0  0  0  0  0  0  0  0  0  0  0  0
   34.2520   -1.6430   11.0800 C   0  0  0  0  0  0  0  0  0  0  0  0
  2  1  1  0
  3  2  2  0
  5  2  1  0
  6  2  2  0
  5  4  1  0
 12  4  1  0
  7  5  2  0
 13  7  1  0
  9  8  1  0
 13  8  2  0
 10  9  2  0
 11 10  1  0
 12 11  2  0
 13 12  1  0
A    1
N
A    2
S
A    3
O1
A    4
S1
A    5
C2
A    6
O2
A    7
N3
A    8
C4
A    9
C5
A   10
C6
A   11
C7
A   12
C8
A   13
C9
M  END
>  <Id>  (30) 
5JGS_EVF_B_302

>  <ChainId>  (30) 
B

>  <AsymId>  (30) 
C

>  <SeqNum>  (30) 
302

>  <Name>  (30) 
1,3-benzothiazole-2-sulfonamide

>  <SystematicName>  (30) 
1,3-benzothiazole-2-sulfonamide

>  <Synonyms>  (30) 


>  <Type>  (30) 
NON-POLYMER

>  <Formula>  (30) 
C7 H6 N2 O2 S2

>  <ObservedFormula>  (30) 
S2 C7 N2 O2

>  <MolecularWeight>  (30) 
214.265

>  <ModifiedDate>  (30) 
2011-12-16

>  <Parent>  (30) 


>  <OneLetterCode>  (30) 


>  <SubcomponentList>  (30) 


>  <AmbiguousFlag>  (30) 
N

>  <InsertionCode>  (30) 


>  <InstanceId>  (30) 
5JGS_EVF_B_302

>  <ChemCompId>  (30) 
EVF

>  <PdbId>  (30) 
5JGS

>  <ResidueNumber>  (30) 
302

>  <InChI>  (30) 
InChI=1S/C7H6N2O2S2/c8-13(10,11)7-9-5-3-1-2-4-6(5)12-7/h1-4H,(H2,8,10,11)

>  <InChIKey>  (30) 
SDYMYAFSQACTQP-UHFFFAOYSA-N

>  <SMILES>  (30) 
c1ccc2c(c1)nc(s2)S(=O)(=O)N

>  <MissingHeavyAtoms>  (30) 
0

>  <Model>  (30) 
1

>  <AltIds>  (30) 


>  <pKI>  (30) 
7.52

>  <ChemblID>  (30) 
CHEMBL168552

>  <standardized_canonical_smiles>  (30) 
NS(=O)(=O)c1nc2ccccc2s1

$$$$
3S73_EVF_B_263
     RDKit          3D

 13 14  0  0  0  0  0  0  0  0999 V2000
   33.0330   -0.4870   15.5810 N   0  0  0  0  0  0  0  0  0  0  0  0
   32.3150   -0.7900   14.2620 S   0  0  0  0  0  0  0  0  0  0  0  0
   31.6800    0.4550   13.7930 O   0  0  0  0  0  0  0  0  0  0  0  0
   33.8620   -0.0680   11.9160 S   0  0  0  0  0  0  0  0  0  0  0  0
   33.3560   -1.2650   13.0900 C   0  0  0  0  0  0  0  0  0  0  0  0
   31.3620   -1.9110   14.3730 O   0  0  0  0  0  0  0  0  0  0  0  0
   33.8090   -2.5470   13.0120 N   0  0  0  0  0  0  0  0  0  0  0  0
   35.3490   -3.7170   11.4370 C   0  0  0  0  0  0  0  0  0  0  0  0
   36.1250   -3.5730   10.3070 C   0  0  0  0  0  0  0  0  0  0  0  0
   36.2150   -2.3450    9.6710 C   0  0  0  0  0  0  0  0  0  0  0  0
   35.5230   -1.2510   10.1610 C   0  0  0  0  0  0  0  0  0  0  0  0
   34.7250   -1.3960   11.2910 C   0  0  0  0  0  0  0  0  0  0  0  0
   34.6360   -2.6350   11.9370 C   0  0  0  0  0  0  0  0  0  0  0  0
  2  1  1  0
  3  2  2  0
  5  2  1  0
  6  2  2  0
  5  4  1  0
 12  4  1  0
  7  5  2  0
 13  7  1  0
  9  8  1  0
 13  8  2  0
 10  9  2  0
 11 10  1  0
 12 11  2  0
 13 12  1  0
A    1
N
A    2
S
A    3
O1
A    4
S1
A    5
C2
A    6
O2
A    7
N3
A    8
C4
A    9
C5
A   10
C6
A   11
C7
A   12
C8
A   13
C9
M  END
>  <Id>  (31) 
3S73_EVF_B_263

>  <ChainId>  (31) 
B

>  <AsymId>  (31) 
D

>  <SeqNum>  (31) 
263

>  <Name>  (31) 
1,3-benzothiazole-2-sulfonamide

>  <SystematicName>  (31) 
1,3-benzothiazole-2-sulfonamide

>  <Synonyms>  (31) 


>  <Type>  (31) 
NON-POLYMER

>  <Formula>  (31) 
C7 H6 N2 O2 S2

>  <ObservedFormula>  (31) 
S2 C7 N2 O2

>  <MolecularWeight>  (31) 
214.265

>  <ModifiedDate>  (31) 
2011-12-16

>  <Parent>  (31) 


>  <OneLetterCode>  (31) 


>  <SubcomponentList>  (31) 


>  <AmbiguousFlag>  (31) 
N

>  <InsertionCode>  (31) 


>  <InstanceId>  (31) 
3S73_EVF_B_263

>  <ChemCompId>  (31) 
EVF

>  <PdbId>  (31) 
3S73

>  <ResidueNumber>  (31) 
263

>  <InChI>  (31) 
InChI=1S/C7H6N2O2S2/c8-13(10,11)7-9-5-3-1-2-4-6(5)12-7/h1-4H,(H2,8,10,11)

>  <InChIKey>  (31) 
SDYMYAFSQACTQP-UHFFFAOYSA-N

>  <SMILES>  (31) 
c1ccc2c(c1)nc(s2)S(=O)(=O)N

>  <MissingHeavyAtoms>  (31) 
0

>  <Model>  (31) 
1

>  <AltIds>  (31) 


>  <pKI>  (31) 
7.52

>  <ChemblID>  (31) 
CHEMBL168552

>  <standardized_canonical_smiles>  (31) 
NS(=O)(=O)c1nc2ccccc2s1

$$$$
5JE7_EVF_B_303
     RDKit          3D

 13 14  0  0  0  0  0  0  0  0999 V2000
   32.7250   -0.6330   15.6070 N   0  0  0  0  0  0  0  0  0  0  0  0
   31.8010   -0.9680   14.2680 S   0  0  0  0  0  0  0  0  0  0  0  0
   31.1970    0.2850   13.8750 O   0  0  0  0  0  0  0  0  0  0  0  0
   33.4930   -0.3250   11.8370 S   0  0  0  0  0  0  0  0  0  0  0  0
   32.8970   -1.5030   12.9910 C   0  0  0  0  0  0  0  0  0  0  0  0
   30.9100   -2.0580   14.5500 O   0  0  0  0  0  0  0  0  0  0  0  0
   33.3310   -2.7180   12.7800 N   0  0  0  0  0  0  0  0  0  0  0  0
   34.8870   -3.8880   11.0480 C   0  0  0  0  0  0  0  0  0  0  0  0
   35.6890   -3.7690    9.9410 C   0  0  0  0  0  0  0  0  0  0  0  0
   35.8740   -2.5150    9.3380 C   0  0  0  0  0  0  0  0  0  0  0  0
   35.2430   -1.4060    9.8760 C   0  0  0  0  0  0  0  0  0  0  0  0
   34.4170   -1.4920   10.9850 C   0  0  0  0  0  0  0  0  0  0  0  0
   34.2040   -2.8120   11.6430 C   0  0  0  0  0  0  0  0  0  0  0  0
  2  1  1  0
  3  2  2  0
  5  2  1  0
  6  2  2  0
  5  4  1  0
 12  4  1  0
  7  5  2  0
 13  7  1  0
  9  8  1  0
 13  8  2  0
 10  9  2  0
 11 10  1  0
 12 11  2  0
 13 12  1  0
A    1
N
A    2
S
A    3
O1
A    4
S1
A    5
C2
A    6
O2
A    7
N3
A    8
C4
A    9
C5
A   10
C6
A   11
C7
A   12
C8
A   13
C9
M  END
>  <Id>  (32) 
5JE7_EVF_B_303

>  <ChainId>  (32) 
B

>  <AsymId>  (32) 
D

>  <SeqNum>  (32) 
303

>  <Name>  (32) 
1,3-benzothiazole-2-sulfonamide

>  <SystematicName>  (32) 
1,3-benzothiazole-2-sulfonamide

>  <Synonyms>  (32) 


>  <Type>  (32) 
NON-POLYMER

>  <Formula>  (32) 
C7 H6 N2 O2 S2

>  <ObservedFormula>  (32) 
S2 C7 N2 O2

>  <MolecularWeight>  (32) 
214.265

>  <ModifiedDate>  (32) 
2011-12-16

>  <Parent>  (32) 


>  <OneLetterCode>  (32) 


>  <SubcomponentList>  (32) 


>  <AmbiguousFlag>  (32) 
N

>  <InsertionCode>  (32) 


>  <InstanceId>  (32) 
5JE7_EVF_B_303

>  <ChemCompId>  (32) 
EVF

>  <PdbId>  (32) 
5JE7

>  <ResidueNumber>  (32) 
303

>  <InChI>  (32) 
InChI=1S/C7H6N2O2S2/c8-13(10,11)7-9-5-3-1-2-4-6(5)12-7/h1-4H,(H2,8,10,11)

>  <InChIKey>  (32) 
SDYMYAFSQACTQP-UHFFFAOYSA-N

>  <SMILES>  (32) 
c1ccc2c(c1)nc(s2)S(=O)(=O)N

>  <MissingHeavyAtoms>  (32) 
0

>  <Model>  (32) 
1

>  <AltIds>  (32) 


>  <pKI>  (32) 
7.52

>  <ChemblID>  (32) 
CHEMBL168552

>  <standardized_canonical_smiles>  (32) 
NS(=O)(=O)c1nc2ccccc2s1

$$$$
5JG3_EVF_B_302
     RDKit          3D

 13 14  0  0  0  0  0  0  0  0999 V2000
   30.7680   -1.8830   14.7790 N   0  0  0  0  0  0  0  0  0  0  0  0
   31.9260   -0.7840   14.4340 S   0  0  0  0  0  0  0  0  0  0  0  0
   32.7190   -0.5510   15.6320 O   0  0  0  0  0  0  0  0  0  0  0  0
   33.4410   -3.2570   13.1000 S   0  0  0  0  0  0  0  0  0  0  0  0
   33.0290   -1.5200   13.1080 C   0  0  0  0  0  0  0  0  0  0  0  0
   31.3500    0.4460   13.9610 O   0  0  0  0  0  0  0  0  0  0  0  0
   33.5950   -0.8980   12.1150 N   0  0  0  0  0  0  0  0  0  0  0  0
   35.1260   -1.3670   10.1050 C   0  0  0  0  0  0  0  0  0  0  0  0
   35.8490   -2.2740    9.3680 C   0  0  0  0  0  0  0  0  0  0  0  0
   35.8810   -3.6250    9.7580 C   0  0  0  0  0  0  0  0  0  0  0  0
   35.1780   -4.0250   10.8890 C   0  0  0  0  0  0  0  0  0  0  0  0
   34.4260   -3.1260   11.6600 C   0  0  0  0  0  0  0  0  0  0  0  0
   34.3880   -1.6950   11.2510 C   0  0  0  0  0  0  0  0  0  0  0  0
  2  1  1  0
  3  2  2  0
  5  2  1  0
  6  2  2  0
  5  4  1  0
 12  4  1  0
  7  5  2  0
 13  7  1  0
  9  8  1  0
 13  8  2  0
 10  9  2  0
 11 10  1  0
 12 11  2  0
 13 12  1  0
A    1
N
A    2
S
A    3
O1
A    4
S1
A    5
C2
A    6
O2
A    7
N3
A    8
C4
A    9
C5
A   10
C6
A   11
C7
A   12
C8
A   13
C9
M  END
>  <Id>  (33) 
5JG3_EVF_B_302

>  <ChainId>  (33) 
B

>  <AsymId>  (33) 
C

>  <SeqNum>  (33) 
302

>  <Name>  (33) 
1,3-benzothiazole-2-sulfonamide

>  <SystematicName>  (33) 
1,3-benzothiazole-2-sulfonamide

>  <Synonyms>  (33) 


>  <Type>  (33) 
NON-POLYMER

>  <Formula>  (33) 
C7 H6 N2 O2 S2

>  <ObservedFormula>  (33) 
S2 C7 N2 O2

>  <MolecularWeight>  (33) 
214.265

>  <ModifiedDate>  (33) 
2011-12-16

>  <Parent>  (33) 


>  <OneLetterCode>  (33) 


>  <SubcomponentList>  (33) 


>  <AmbiguousFlag>  (33) 
N

>  <InsertionCode>  (33) 


>  <InstanceId>  (33) 
5JG3_EVF_B_302

>  <ChemCompId>  (33) 
EVF

>  <PdbId>  (33) 
5JG3

>  <ResidueNumber>  (33) 
302

>  <InChI>  (33) 
InChI=1S/C7H6N2O2S2/c8-13(10,11)7-9-5-3-1-2-4-6(5)12-7/h1-4H,(H2,8,10,11)

>  <InChIKey>  (33) 
SDYMYAFSQACTQP-UHFFFAOYSA-N

>  <SMILES>  (33) 
c1ccc2c(c1)nc(s2)S(=O)(=O)N

>  <MissingHeavyAtoms>  (33) 
0

>  <Model>  (33) 
1

>  <AltIds>  (33) 


>  <pKI>  (33) 
7.52

>  <ChemblID>  (33) 
CHEMBL168552

>  <standardized_canonical_smiles>  (33) 
NS(=O)(=O)c1nc2ccccc2s1

$$$$
5JG5_EVF_B_302
     RDKit          3D

 13 14  0  0  0  0  0  0  0  0999 V2000
   31.1090    0.3460   13.8290 N   0  0  0  0  0  0  0  0  0  0  0  0
   31.7980   -1.0420   14.2410 S   0  0  0  0  0  0  0  0  0  0  0  0
   30.8950   -2.1170   14.4950 O   0  0  0  0  0  0  0  0  0  0  0  0
   33.4680   -0.2880   11.7700 S   0  0  0  0  0  0  0  0  0  0  0  0
   32.8940   -1.5000   12.9000 C   0  0  0  0  0  0  0  0  0  0  0  0
   32.6510   -0.8100   15.3970 O   0  0  0  0  0  0  0  0  0  0  0  0
   33.3650   -2.6870   12.6550 N   0  0  0  0  0  0  0  0  0  0  0  0
   34.8930   -3.8270   10.9660 C   0  0  0  0  0  0  0  0  0  0  0  0
   35.6880   -3.7020    9.8630 C   0  0  0  0  0  0  0  0  0  0  0  0
   35.8620   -2.4530    9.2510 C   0  0  0  0  0  0  0  0  0  0  0  0
   35.2240   -1.3480    9.7760 C   0  0  0  0  0  0  0  0  0  0  0  0
   34.4040   -1.4360   10.8920 C   0  0  0  0  0  0  0  0  0  0  0  0
   34.2170   -2.7580   11.5510 C   0  0  0  0  0  0  0  0  0  0  0  0
  2  1  1  0
  3  2  2  0
  5  2  1  0
  6  2  2  0
  5  4  1  0
 12  4  1  0
  7  5  2  0
 13  7  1  0
  9  8  1  0
 13  8  2  0
 10  9  2  0
 11 10  1  0
 12 11  2  0
 13 12  1  0
A    1
N
A    2
S
A    3
O1
A    4
S1
A    5
C2
A    6
O2
A    7
N3
A    8
C4
A    9
C5
A   10
C6
A   11
C7
A   12
C8
A   13
C9
M  END
>  <Id>  (34) 
5JG5_EVF_B_302

>  <ChainId>  (34) 
B

>  <AsymId>  (34) 
C

>  <SeqNum>  (34) 
302

>  <Name>  (34) 
1,3-benzothiazole-2-sulfonamide

>  <SystematicName>  (34) 
1,3-benzothiazole-2-sulfonamide

>  <Synonyms>  (34) 


>  <Type>  (34) 
NON-POLYMER

>  <Formula>  (34) 
C7 H6 N2 O2 S2

>  <ObservedFormula>  (34) 
S2 C7 N2 O2

>  <MolecularWeight>  (34) 
214.265

>  <ModifiedDate>  (34) 
2011-12-16

>  <Parent>  (34) 


>  <OneLetterCode>  (34) 


>  <SubcomponentList>  (34) 


>  <AmbiguousFlag>  (34) 
N

>  <InsertionCode>  (34) 


>  <InstanceId>  (34) 
5JG5_EVF_B_302

>  <ChemCompId>  (34) 
EVF

>  <PdbId>  (34) 
5JG5

>  <ResidueNumber>  (34) 
302

>  <InChI>  (34) 
InChI=1S/C7H6N2O2S2/c8-13(10,11)7-9-5-3-1-2-4-6(5)12-7/h1-4H,(H2,8,10,11)

>  <InChIKey>  (34) 
SDYMYAFSQACTQP-UHFFFAOYSA-N

>  <SMILES>  (34) 
c1ccc2c(c1)nc(s2)S(=O)(=O)N

>  <MissingHeavyAtoms>  (34) 
0

>  <Model>  (34) 
1

>  <AltIds>  (34) 


>  <pKI>  (34) 
7.52

>  <ChemblID>  (34) 
CHEMBL168552

>  <standardized_canonical_smiles>  (34) 
NS(=O)(=O)c1nc2ccccc2s1

$$$$
5JDV_EVF_B_302
     RDKit          3D

 13 14  0  0  0  0  0  0  0  0999 V2000
   15.6390   -0.4100   16.2930 N   0  0  0  0  0  0  0  0  0  0  0  0
   15.0850    0.9720   16.8380 S   0  0  0  0  0  0  0  0  0  0  0  0
   15.5420    1.1130   18.1960 O   0  0  0  0  0  0  0  0  0  0  0  0
   14.8710    3.4510   15.0810 S   0  0  0  0  0  0  0  0  0  0  0  0
   15.8560    2.2540   15.9370 C   0  0  0  0  0  0  0  0  0  0  0  0
   13.6550    1.1250   16.6060 O   0  0  0  0  0  0  0  0  0  0  0  0
   17.1320    2.4790   15.8580 N   0  0  0  0  0  0  0  0  0  0  0  0
   18.6950    4.1570   14.7660 C   0  0  0  0  0  0  0  0  0  0  0  0
   18.8310    5.2720   13.9870 C   0  0  0  0  0  0  0  0  0  0  0  0
   17.7120    5.9050   13.4870 C   0  0  0  0  0  0  0  0  0  0  0  0
   16.4590    5.4000   13.7740 C   0  0  0  0  0  0  0  0  0  0  0  0
   16.2710    4.2960   14.5500 C   0  0  0  0  0  0  0  0  0  0  0  0
   17.4580    3.6060   15.1090 C   0  0  0  0  0  0  0  0  0  0  0  0
  2  1  1  0
  3  2  2  0
  5  2  1  0
  6  2  2  0
  5  4  1  0
 12  4  1  0
  7  5  2  0
 13  7  1  0
  9  8  1  0
 13  8  2  0
 10  9  2  0
 11 10  1  0
 12 11  2  0
 13 12  1  0
A    1
N
A    2
S
A    3
O1
A    4
S1
A    5
C2
A    6
O2
A    7
N3
A    8
C4
A    9
C5
A   10
C6
A   11
C7
A   12
C8
A   13
C9
M  END
>  <Id>  (35) 
5JDV_EVF_B_302

>  <ChainId>  (35) 
B

>  <AsymId>  (35) 
C

>  <SeqNum>  (35) 
302

>  <Name>  (35) 
1,3-benzothiazole-2-sulfonamide

>  <SystematicName>  (35) 
1,3-benzothiazole-2-sulfonamide

>  <Synonyms>  (35) 


>  <Type>  (35) 
NON-POLYMER

>  <Formula>  (35) 
C7 H6 N2 O2 S2

>  <ObservedFormula>  (35) 
S2 C7 N2 O2

>  <MolecularWeight>  (35) 
214.265

>  <ModifiedDate>  (35) 
2011-12-16

>  <Parent>  (35) 


>  <OneLetterCode>  (35) 


>  <SubcomponentList>  (35) 


>  <AmbiguousFlag>  (35) 
N

>  <InsertionCode>  (35) 


>  <InstanceId>  (35) 
5JDV_EVF_B_302

>  <ChemCompId>  (35) 
EVF

>  <PdbId>  (35) 
5JDV

>  <ResidueNumber>  (35) 
302

>  <InChI>  (35) 
InChI=1S/C7H6N2O2S2/c8-13(10,11)7-9-5-3-1-2-4-6(5)12-7/h1-4H,(H2,8,10,11)

>  <InChIKey>  (35) 
SDYMYAFSQACTQP-UHFFFAOYSA-N

>  <SMILES>  (35) 
c1ccc2c(c1)nc(s2)S(=O)(=O)N

>  <MissingHeavyAtoms>  (35) 
0

>  <Model>  (35) 
1

>  <AltIds>  (35) 


>  <pKI>  (35) 
7.52

>  <ChemblID>  (35) 
CHEMBL168552

>  <standardized_canonical_smiles>  (35) 
NS(=O)(=O)c1nc2ccccc2s1

$$$$
5JEP_EVF_B_303
     RDKit          3D

 13 14  0  0  0  0  0  0  0  0999 V2000
   30.9650   -2.2220   14.7300 N   0  0  0  0  0  0  0  0  0  0  0  0
   31.9480   -1.0400   14.4150 S   0  0  0  0  0  0  0  0  0  0  0  0
   32.7410   -0.7350   15.6140 O   0  0  0  0  0  0  0  0  0  0  0  0
   33.6210   -0.5230   12.0030 S   0  0  0  0  0  0  0  0  0  0  0  0
   33.0530   -1.7090   13.1480 C   0  0  0  0  0  0  0  0  0  0  0  0
   31.2990    0.1360   13.9060 O   0  0  0  0  0  0  0  0  0  0  0  0
   33.4980   -2.9390   12.9610 N   0  0  0  0  0  0  0  0  0  0  0  0
   35.1570   -3.9400   11.0940 C   0  0  0  0  0  0  0  0  0  0  0  0
   35.9230   -3.6910    9.9860 C   0  0  0  0  0  0  0  0  0  0  0  0
   36.0170   -2.4000    9.4530 C   0  0  0  0  0  0  0  0  0  0  0  0
   35.3350   -1.3860   10.0490 C   0  0  0  0  0  0  0  0  0  0  0  0
   34.5410   -1.5960   11.1540 C   0  0  0  0  0  0  0  0  0  0  0  0
   34.4030   -2.9510   11.7690 C   0  0  0  0  0  0  0  0  0  0  0  0
  2  1  1  0
  3  2  2  0
  5  2  1  0
  6  2  2  0
  5  4  1  0
 12  4  1  0
  7  5  2  0
 13  7  1  0
  9  8  1  0
 13  8  2  0
 10  9  2  0
 11 10  1  0
 12 11  2  0
 13 12  1  0
A    1
N
A    2
S
A    3
O1
A    4
S1
A    5
C2
A    6
O2
A    7
N3
A    8
C4
A    9
C5
A   10
C6
A   11
C7
A   12
C8
A   13
C9
M  END
>  <Id>  (36) 
5JEP_EVF_B_303

>  <ChainId>  (36) 
B

>  <AsymId>  (36) 
D

>  <SeqNum>  (36) 
303

>  <Name>  (36) 
1,3-benzothiazole-2-sulfonamide

>  <SystematicName>  (36) 
1,3-benzothiazole-2-sulfonamide

>  <Synonyms>  (36) 


>  <Type>  (36) 
NON-POLYMER

>  <Formula>  (36) 
C7 H6 N2 O2 S2

>  <ObservedFormula>  (36) 
S2 C7 N2 O2

>  <MolecularWeight>  (36) 
214.265

>  <ModifiedDate>  (36) 
2011-12-16

>  <Parent>  (36) 


>  <OneLetterCode>  (36) 


>  <SubcomponentList>  (36) 


>  <AmbiguousFlag>  (36) 
N

>  <InsertionCode>  (36) 


>  <InstanceId>  (36) 
5JEP_EVF_B_303

>  <ChemCompId>  (36) 
EVF

>  <PdbId>  (36) 
5JEP

>  <ResidueNumber>  (36) 
303

>  <InChI>  (36) 
InChI=1S/C7H6N2O2S2/c8-13(10,11)7-9-5-3-1-2-4-6(5)12-7/h1-4H,(H2,8,10,11)

>  <InChIKey>  (36) 
SDYMYAFSQACTQP-UHFFFAOYSA-N

>  <SMILES>  (36) 
c1ccc2c(c1)nc(s2)S(=O)(=O)N

>  <MissingHeavyAtoms>  (36) 
0

>  <Model>  (36) 
1

>  <AltIds>  (36) 


>  <pKI>  (36) 
7.52

>  <ChemblID>  (36) 
CHEMBL168552

>  <standardized_canonical_smiles>  (36) 
NS(=O)(=O)c1nc2ccccc2s1

$$$$
5JES_EVF_B_303
     RDKit          3D

 13 14  0  0  0  0  0  0  0  0999 V2000
   30.8310   -2.4510   14.2460 N   0  0  0  0  0  0  0  0  0  0  0  0
   31.7320   -1.1390   14.1960 S   0  0  0  0  0  0  0  0  0  0  0  0
   30.9060    0.0130   13.9380 O   0  0  0  0  0  0  0  0  0  0  0  0
   33.3550   -0.2600   11.8930 S   0  0  0  0  0  0  0  0  0  0  0  0
   32.7210   -1.4830   12.9300 C   0  0  0  0  0  0  0  0  0  0  0  0
   32.4390   -0.9380   15.4410 O   0  0  0  0  0  0  0  0  0  0  0  0
   33.0720   -2.7660   12.6110 N   0  0  0  0  0  0  0  0  0  0  0  0
   34.5110   -3.8520   10.8110 C   0  0  0  0  0  0  0  0  0  0  0  0
   35.3040   -3.5830    9.6950 C   0  0  0  0  0  0  0  0  0  0  0  0
   35.5120   -2.2820    9.2370 C   0  0  0  0  0  0  0  0  0  0  0  0
   34.9280   -1.1980    9.8830 C   0  0  0  0  0  0  0  0  0  0  0  0
   34.1320   -1.4350   10.9940 C   0  0  0  0  0  0  0  0  0  0  0  0
   33.8940   -2.8110   11.5040 C   0  0  0  0  0  0  0  0  0  0  0  0
  2  1  1  0
  3  2  2  0
  5  2  1  0
  6  2  2  0
  5  4  1  0
 12  4  1  0
  7  5  2  0
 13  7  1  0
  9  8  1  0
 13  8  2  0
 10  9  2  0
 11 10  1  0
 12 11  2  0
 13 12  1  0
A    1
N
A    2
S
A    3
O1
A    4
S1
A    5
C2
A    6
O2
A    7
N3
A    8
C4
A    9
C5
A   10
C6
A   11
C7
A   12
C8
A   13
C9
M  END
>  <Id>  (37) 
5JES_EVF_B_303

>  <ChainId>  (37) 
B

>  <AsymId>  (37) 
D

>  <SeqNum>  (37) 
303

>  <Name>  (37) 
1,3-benzothiazole-2-sulfonamide

>  <SystematicName>  (37) 
1,3-benzothiazole-2-sulfonamide

>  <Synonyms>  (37) 


>  <Type>  (37) 
NON-POLYMER

>  <Formula>  (37) 
C7 H6 N2 O2 S2

>  <ObservedFormula>  (37) 
S2 C7 N2 O2

>  <MolecularWeight>  (37) 
214.265

>  <ModifiedDate>  (37) 
2011-12-16

>  <Parent>  (37) 


>  <OneLetterCode>  (37) 


>  <SubcomponentList>  (37) 


>  <AmbiguousFlag>  (37) 
N

>  <InsertionCode>  (37) 


>  <InstanceId>  (37) 
5JES_EVF_B_303

>  <ChemCompId>  (37) 
EVF

>  <PdbId>  (37) 
5JES

>  <ResidueNumber>  (37) 
303

>  <InChI>  (37) 
InChI=1S/C7H6N2O2S2/c8-13(10,11)7-9-5-3-1-2-4-6(5)12-7/h1-4H,(H2,8,10,11)

>  <InChIKey>  (37) 
SDYMYAFSQACTQP-UHFFFAOYSA-N

>  <SMILES>  (37) 
c1ccc2c(c1)nc(s2)S(=O)(=O)N

>  <MissingHeavyAtoms>  (37) 
0

>  <Model>  (37) 
1

>  <AltIds>  (37) 


>  <pKI>  (37) 
7.52

>  <ChemblID>  (37) 
CHEMBL168552

>  <standardized_canonical_smiles>  (37) 
NS(=O)(=O)c1nc2ccccc2s1

$$$$
4K0T_D9Z_A_303
     RDKit          3D

 16 17  0  0  0  0  0  0  0  0999 V2000
   13.9170    1.3900   16.5170 O   0  0  0  0  0  0  0  0  0  0  0  0
   15.3520    1.1420   16.7960 S   0  0  0  0  0  0  0  0  0  0  0  0
   15.7320    1.2080   18.2120 O   0  0  0  0  0  0  0  0  0  0  0  0
   15.8820   -0.2500   16.1480 N   0  0  0  0  0  0  0  0  0  0  0  0
   16.2220    2.4540   16.0360 C   0  0  0  0  0  0  0  0  0  0  0  0
   15.6430    3.7400   15.1640 S   0  0  0  0  0  0  0  0  0  0  0  0
   17.5940    2.4690   16.1670 N   0  0  0  0  0  0  0  0  0  0  0  0
   18.1300    3.6110   15.4730 N   0  0  0  0  0  0  0  0  0  0  0  0
   17.1530    4.3700   14.8910 C   0  0  0  0  0  0  0  0  0  0  0  0
   17.6530    5.5770   14.1770 C   0  0  0  0  0  0  0  0  0  0  0  0
   19.0100    5.5800   13.8420 C   0  0  0  0  0  0  0  0  0  0  0  0
   16.8720    6.6810   13.8910 C   0  0  0  0  0  0  0  0  0  0  0  0
   17.4280    7.7730   13.2390 C   0  0  0  0  0  0  0  0  0  0  0  0
   18.7740    7.7700   12.8940 C   0  0  0  0  0  0  0  0  0  0  0  0
   19.5720    6.6750   13.1950 C   0  0  0  0  0  0  0  0  0  0  0  0
   15.2030    6.6760   14.3120 Cl  0  0  0  0  0  0  0  0  0  0  0  0
  2  1  2  0
  3  2  2  0
  4  2  1  0
  5  2  1  0
  6  5  1  0
  7  5  2  0
  9  6  1  0
  8  7  1  0
  9  8  2  0
 10  9  1  0
 11 10  2  0
 12 10  1  0
 15 11  1  0
 13 12  2  0
 16 12  1  0
 14 13  1  0
 15 14  2  0
A    1
O2
A    2
S1
A    3
O1
A    4
N3
A    5
C8
A    6
S2
A    7
N2
A    8
N1
A    9
C7
A   10
C1
A   11
C6
A   12
C2
A   13
C3
A   14
C4
A   15
C5
A   16
CL1
M  END
>  <Id>  (38) 
4K0T_D9Z_A_303

>  <ChainId>  (38) 
A

>  <AsymId>  (38) 
D

>  <SeqNum>  (38) 
303

>  <Name>  (38) 
5-(2-chlorophenyl)-1,3,4-thiadiazole-2-sulfonamide

>  <SystematicName>  (38) 
5-(2-chlorophenyl)-1,3,4-thiadiazole-2-sulfonamide

>  <Synonyms>  (38) 


>  <Type>  (38) 
NON-POLYMER

>  <Formula>  (38) 
C8 H6 Cl N3 O2 S2

>  <ObservedFormula>  (38) 
S2 C8 Cl N3 O2

>  <MolecularWeight>  (38) 
275.735

>  <ModifiedDate>  (38) 
2011-06-04

>  <Parent>  (38) 


>  <OneLetterCode>  (38) 


>  <SubcomponentList>  (38) 


>  <AmbiguousFlag>  (38) 
N

>  <InsertionCode>  (38) 


>  <InstanceId>  (38) 
4K0T_D9Z_A_303

>  <ChemCompId>  (38) 
D9Z

>  <PdbId>  (38) 
4K0T

>  <ResidueNumber>  (38) 
303

>  <InChI>  (38) 
InChI=1S/C8H6ClN3O2S2/c9-6-4-2-1-3-5(6)7-11-12-8(15-7)16(10,13)14/h1-4H,(H2,10,13,14)

>  <InChIKey>  (38) 
PZVGOWIIHCUHAO-UHFFFAOYSA-N

>  <SMILES>  (38) 
c1ccc(c(c1)c2nnc(s2)S(=O)(=O)N)Cl

>  <MissingHeavyAtoms>  (38) 
0

>  <Model>  (38) 
1

>  <AltIds>  (38) 


>  <pKI>  (38) 
7.92

>  <ChemblID>  (38) 
CHEMBL360356

>  <standardized_canonical_smiles>  (38) 
NS(=O)(=O)c1nnc(-c2ccccc2Cl)s1

$$$$
3DCC_D9Z_A_263
     RDKit          3D

 16 17  0  0  0  0  0  0  0  0999 V2000
   -7.4220    0.6900   16.6380 O   0  0  0  0  0  0  0  0  0  0  0  0
   -6.0670    0.4700   16.9070 S   0  0  0  0  0  0  0  0  0  0  0  0
   -5.6890    0.5920   18.2890 O   0  0  0  0  0  0  0  0  0  0  0  0
   -5.4780   -0.9040   16.3560 N   0  0  0  0  0  0  0  0  0  0  0  0
   -5.2280    1.6920   16.1710 C   0  0  0  0  0  0  0  0  0  0  0  0
   -5.8660    2.9570   15.2040 S   0  0  0  0  0  0  0  0  0  0  0  0
   -3.8990    1.7000   16.3010 N   0  0  0  0  0  0  0  0  0  0  0  0
   -3.3540    2.7480   15.5640 N   0  0  0  0  0  0  0  0  0  0  0  0
   -4.2460    3.5270   14.9250 C   0  0  0  0  0  0  0  0  0  0  0  0
   -3.8240    4.6320   14.1700 C   0  0  0  0  0  0  0  0  0  0  0  0
   -2.4790    4.9340   14.0500 C   0  0  0  0  0  0  0  0  0  0  0  0
   -4.7470    5.4240   13.5430 C   0  0  0  0  0  0  0  0  0  0  0  0
   -4.4270    6.5050   12.7520 C   0  0  0  0  0  0  0  0  0  0  0  0
   -3.0580    6.8110   12.6290 C   0  0  0  0  0  0  0  0  0  0  0  0
   -2.1000    6.0540   13.2730 C   0  0  0  0  0  0  0  0  0  0  0  0
   -6.4460    5.3330   13.5050 Cl  0  0  0  0  0  0  0  0  0  0  0  0
  2  1  2  0
  3  2  2  0
  4  2  1  0
  5  2  1  0
  6  5  1  0
  7  5  2  0
  9  6  1  0
  8  7  1  0
  9  8  2  0
 10  9  1  0
 11 10  2  0
 12 10  1  0
 15 11  1  0
 13 12  2  0
 16 12  1  0
 14 13  1  0
 15 14  2  0
A    1
O2
A    2
S1
A    3
O1
A    4
N3
A    5
C8
A    6
S2
A    7
N2
A    8
N1
A    9
C7
A   10
C1
A   11
C6
A   12
C2
A   13
C3
A   14
C4
A   15
C5
A   16
CL1
M  END
>  <Id>  (39) 
3DCC_D9Z_A_263

>  <ChainId>  (39) 
A

>  <AsymId>  (39) 
C

>  <SeqNum>  (39) 
263

>  <Name>  (39) 
5-(2-chlorophenyl)-1,3,4-thiadiazole-2-sulfonamide

>  <SystematicName>  (39) 
5-(2-chlorophenyl)-1,3,4-thiadiazole-2-sulfonamide

>  <Synonyms>  (39) 


>  <Type>  (39) 
NON-POLYMER

>  <Formula>  (39) 
C8 H6 Cl N3 O2 S2

>  <ObservedFormula>  (39) 
S2 C8 Cl N3 O2

>  <MolecularWeight>  (39) 
275.735

>  <ModifiedDate>  (39) 
2011-06-04

>  <Parent>  (39) 


>  <OneLetterCode>  (39) 


>  <SubcomponentList>  (39) 


>  <AmbiguousFlag>  (39) 
N

>  <InsertionCode>  (39) 


>  <InstanceId>  (39) 
3DCC_D9Z_A_263

>  <ChemCompId>  (39) 
D9Z

>  <PdbId>  (39) 
3DCC

>  <ResidueNumber>  (39) 
263

>  <InChI>  (39) 
InChI=1S/C8H6ClN3O2S2/c9-6-4-2-1-3-5(6)7-11-12-8(15-7)16(10,13)14/h1-4H,(H2,10,13,14)

>  <InChIKey>  (39) 
PZVGOWIIHCUHAO-UHFFFAOYSA-N

>  <SMILES>  (39) 
c1ccc(c(c1)c2nnc(s2)S(=O)(=O)N)Cl

>  <MissingHeavyAtoms>  (39) 
0

>  <Model>  (39) 
1

>  <AltIds>  (39) 


>  <pKI>  (39) 
7.92

>  <ChemblID>  (39) 
CHEMBL360356

>  <standardized_canonical_smiles>  (39) 
NS(=O)(=O)c1nnc(-c2ccccc2Cl)s1

$$$$
3D9Z_D9Z_A_263
     RDKit          3D

 16 17  0  0  0  0  0  0  0  0999 V2000
   -7.4330    0.6790   16.6650 O   0  0  0  0  0  0  0  0  0  0  0  0
   -6.0400    0.4340   16.8960 S   0  0  0  0  0  0  0  0  0  0  0  0
   -5.6600    0.5280   18.2670 O   0  0  0  0  0  0  0  0  0  0  0  0
   -5.6170   -0.9840   16.3240 N   0  0  0  0  0  0  0  0  0  0  0  0
   -5.2560    1.6870   16.1700 C   0  0  0  0  0  0  0  0  0  0  0  0
   -5.8450    2.9550   15.1770 S   0  0  0  0  0  0  0  0  0  0  0  0
   -3.9180    1.6980   16.3110 N   0  0  0  0  0  0  0  0  0  0  0  0
   -3.3600    2.6980   15.5570 N   0  0  0  0  0  0  0  0  0  0  0  0
   -4.2210    3.4800   14.8850 C   0  0  0  0  0  0  0  0  0  0  0  0
   -3.7710    4.5600   14.1230 C   0  0  0  0  0  0  0  0  0  0  0  0
   -2.4180    4.8460   14.0190 C   0  0  0  0  0  0  0  0  0  0  0  0
   -4.6800    5.3520   13.4860 C   0  0  0  0  0  0  0  0  0  0  0  0
   -4.3390    6.4230   12.6900 C   0  0  0  0  0  0  0  0  0  0  0  0
   -2.9740    6.7100   12.5720 C   0  0  0  0  0  0  0  0  0  0  0  0
   -2.0270    5.9450   13.2300 C   0  0  0  0  0  0  0  0  0  0  0  0
   -6.3760    5.3160   13.4270 Cl  0  0  0  0  0  0  0  0  0  0  0  0
  2  1  2  0
  3  2  2  0
  4  2  1  0
  5  2  1  0
  6  5  1  0
  7  5  2  0
  9  6  1  0
  8  7  1  0
  9  8  2  0
 10  9  1  0
 11 10  2  0
 12 10  1  0
 15 11  1  0
 13 12  2  0
 16 12  1  0
 14 13  1  0
 15 14  2  0
A    1
O2
A    2
S1
A    3
O1
A    4
N3
A    5
C8
A    6
S2
A    7
N2
A    8
N1
A    9
C7
A   10
C1
A   11
C6
A   12
C2
A   13
C3
A   14
C4
A   15
C5
A   16
CL1
M  END
>  <Id>  (40) 
3D9Z_D9Z_A_263

>  <ChainId>  (40) 
A

>  <AsymId>  (40) 
C

>  <SeqNum>  (40) 
263

>  <Name>  (40) 
5-(2-chlorophenyl)-1,3,4-thiadiazole-2-sulfonamide

>  <SystematicName>  (40) 
5-(2-chlorophenyl)-1,3,4-thiadiazole-2-sulfonamide

>  <Synonyms>  (40) 


>  <Type>  (40) 
NON-POLYMER

>  <Formula>  (40) 
C8 H6 Cl N3 O2 S2

>  <ObservedFormula>  (40) 
S2 C8 Cl N3 O2

>  <MolecularWeight>  (40) 
275.735

>  <ModifiedDate>  (40) 
2011-06-04

>  <Parent>  (40) 


>  <OneLetterCode>  (40) 


>  <SubcomponentList>  (40) 


>  <AmbiguousFlag>  (40) 
N

>  <InsertionCode>  (40) 


>  <InstanceId>  (40) 
3D9Z_D9Z_A_263

>  <ChemCompId>  (40) 
D9Z

>  <PdbId>  (40) 
3D9Z

>  <ResidueNumber>  (40) 
263

>  <InChI>  (40) 
InChI=1S/C8H6ClN3O2S2/c9-6-4-2-1-3-5(6)7-11-12-8(15-7)16(10,13)14/h1-4H,(H2,10,13,14)

>  <InChIKey>  (40) 
PZVGOWIIHCUHAO-UHFFFAOYSA-N

>  <SMILES>  (40) 
c1ccc(c(c1)c2nnc(s2)S(=O)(=O)N)Cl

>  <MissingHeavyAtoms>  (40) 
0

>  <Model>  (40) 
1

>  <AltIds>  (40) 


>  <pKI>  (40) 
7.92

>  <ChemblID>  (40) 
CHEMBL360356

>  <standardized_canonical_smiles>  (40) 
NS(=O)(=O)c1nnc(-c2ccccc2Cl)s1

$$$$
4QEF_0NM_A_302
     RDKit          3D

  3  2  0  0  0  0  0  0  0  0999 V2000
   -6.0120   -0.4830   16.2350 N   0  0  0  0  0  0  0  0  0  0  0  0
   -5.7120   -0.0310   17.2270 C   0  0  0  0  0  0  0  0  0  0  0  0
   -5.3780    0.4700   18.3420 O   0  0  0  0  0  0  0  0  0  0  0  0
  2  1  3  0
  3  2  1  0
A    1
N
A    2
C
A    3
O
M  END
>  <Id>  (41) 
4QEF_0NM_A_302

>  <ChainId>  (41) 
A

>  <AsymId>  (41) 
C

>  <SeqNum>  (41) 
302

>  <Name>  (41) 
cyanic acid

>  <SystematicName>  (41) 
cyanic acid

>  <Synonyms>  (41) 


>  <Type>  (41) 
NON-POLYMER

>  <Formula>  (41) 
C H N O

>  <ObservedFormula>  (41) 
C N O

>  <MolecularWeight>  (41) 
43.025

>  <ModifiedDate>  (41) 
2013-03-22

>  <Parent>  (41) 


>  <OneLetterCode>  (41) 


>  <SubcomponentList>  (41) 


>  <AmbiguousFlag>  (41) 
N

>  <InsertionCode>  (41) 


>  <InstanceId>  (41) 
4QEF_0NM_A_302

>  <ChemCompId>  (41) 
0NM

>  <PdbId>  (41) 
4QEF

>  <ResidueNumber>  (41) 
302

>  <InChI>  (41) 
InChI=1S/CHNO/c2-1-3/h3H

>  <InChIKey>  (41) 
XLJMAIOERFSOGZ-UHFFFAOYSA-N

>  <SMILES>  (41) 
C(#N)O

>  <MissingHeavyAtoms>  (41) 
0

>  <Model>  (41) 
1

>  <AltIds>  (41) 


>  <pKI>  (41) 
4.52

>  <ChemblID>  (41) 
CHEMBL1161700

>  <standardized_canonical_smiles>  (41) 
N#CO

$$$$
4E5Q_0NM_A_302
     RDKit          3D

  3  2  0  0  0  0  0  0  0  0999 V2000
   -5.8400    0.0090   15.9910 N   0  0  0  0  0  0  0  0  0  0  0  0
   -5.6290    0.3800   17.0280 C   0  0  0  0  0  0  0  0  0  0  0  0
   -5.3830    0.8010   18.2070 O   0  0  0  0  0  0  0  0  0  0  0  0
  2  1  3  0
  3  2  1  0
A    1
N
A    2
C
A    3
O
M  END
>  <Id>  (42) 
4E5Q_0NM_A_302

>  <ChainId>  (42) 
A

>  <AsymId>  (42) 
C

>  <SeqNum>  (42) 
302

>  <Name>  (42) 
cyanic acid

>  <SystematicName>  (42) 
cyanic acid

>  <Synonyms>  (42) 


>  <Type>  (42) 
NON-POLYMER

>  <Formula>  (42) 
C H N O

>  <ObservedFormula>  (42) 
C N O

>  <MolecularWeight>  (42) 
43.025

>  <ModifiedDate>  (42) 
2013-03-22

>  <Parent>  (42) 


>  <OneLetterCode>  (42) 


>  <SubcomponentList>  (42) 


>  <AmbiguousFlag>  (42) 
N

>  <InsertionCode>  (42) 


>  <InstanceId>  (42) 
4E5Q_0NM_A_302

>  <ChemCompId>  (42) 
0NM

>  <PdbId>  (42) 
4E5Q

>  <ResidueNumber>  (42) 
302

>  <InChI>  (42) 
InChI=1S/CHNO/c2-1-3/h3H

>  <InChIKey>  (42) 
XLJMAIOERFSOGZ-UHFFFAOYSA-N

>  <SMILES>  (42) 
C(#N)O

>  <MissingHeavyAtoms>  (42) 
0

>  <Model>  (42) 
1

>  <AltIds>  (42) 


>  <pKI>  (42) 
4.52

>  <ChemblID>  (42) 
CHEMBL1161700

>  <standardized_canonical_smiles>  (42) 
N#CO

$$$$
3IBL_O59_A_300
     RDKit          3D

 18 17  0  0  0  0  0  0  0  0999 V2000
   -4.7710    1.9230   14.5970 C   0  0  0  0  0  0  0  0  0  0  0  0
   -5.3700   -0.4660   16.2230 N   0  0  0  0  0  0  0  0  0  0  0  0
   -7.1920    1.1550   16.3950 O   0  0  0  0  0  0  0  0  0  0  0  0
   -5.8350    0.9300   16.7690 S   0  0  0  0  0  0  0  0  0  0  0  0
   -4.1010    3.1800   14.1260 C   0  0  0  0  0  0  0  0  0  0  0  0
   -0.9460   11.6960   11.9910 N   0  0  0  0  0  0  0  0  0  0  0  0
   -5.4500    1.0310   18.1450 O   0  0  0  0  0  0  0  0  0  0  0  0
   -1.6330   11.7780   13.4050 S   0  0  0  0  0  0  0  0  0  0  0  0
   -4.9880    4.3970   14.1490 C   0  0  0  0  0  0  0  0  0  0  0  0
   -5.0200    2.0690   16.0500 O   0  0  0  0  0  0  0  0  0  0  0  0
   -4.3700    5.6210   13.5210 C   0  0  0  0  0  0  0  0  0  0  0  0
   -1.9850   10.3210   13.9010 O   0  0  0  0  0  0  0  0  0  0  0  0
   -3.2310    6.2150   14.3050 C   0  0  0  0  0  0  0  0  0  0  0  0
   -0.6810   12.2730   14.3520 O   0  0  0  0  0  0  0  0  0  0  0  0
   -2.4360    7.2380   13.5510 C   0  0  0  0  0  0  0  0  0  0  0  0
   -2.9000   12.4200   13.2530 O   0  0  0  0  0  0  0  0  0  0  0  0
   -1.5010    8.0300   14.4230 C   0  0  0  0  0  0  0  0  0  0  0  0
   -0.9550    9.2670   13.7690 C   0  0  0  0  0  0  0  0  0  0  0  0
  5  1  1  0
 10  1  1  0
  4  2  1  0
  4  3  2  0
  7  4  2  0
 10  4  1  0
  9  5  1  0
  8  6  1  0
 12  8  1  0
 14  8  2  0
 16  8  2  0
 11  9  1  0
 13 11  1  0
 18 12  1  0
 15 13  1  0
 17 15  1  0
 18 17  1  0
A    1
C1
A    2
N1
A    3
O1
A    4
S1
A    5
C2
A    6
N2
A    7
O2
A    8
S2
A    9
C3
A   10
O3
A   11
C4
A   12
O4
A   13
C5
A   14
O5
A   15
C6
A   16
O6
A   17
C7
A   18
C8
M  END
>  <Id>  (43) 
3IBL_O59_A_300

>  <ChainId>  (43) 
A

>  <AsymId>  (43) 
C

>  <SeqNum>  (43) 
300

>  <Name>  (43) 
octane-1,8-diyl disulfamate

>  <SystematicName>  (43) 
8-sulfamoyloxyoctyl sulfamate

>  <Synonyms>  (43) 
1,8-Octanediol disulfamate

>  <Type>  (43) 
NON-POLYMER

>  <Formula>  (43) 
C8 H20 N2 O6 S2

>  <ObservedFormula>  (43) 
C8 S2 N2 O6

>  <MolecularWeight>  (43) 
304.384

>  <ModifiedDate>  (43) 
2011-06-04

>  <Parent>  (43) 


>  <OneLetterCode>  (43) 


>  <SubcomponentList>  (43) 


>  <AmbiguousFlag>  (43) 
N

>  <InsertionCode>  (43) 


>  <InstanceId>  (43) 
3IBL_O59_A_300

>  <ChemCompId>  (43) 
O59

>  <PdbId>  (43) 
3IBL

>  <ResidueNumber>  (43) 
300

>  <InChI>  (43) 
InChI=1S/C8H20N2O6S2/c9-17(11,12)15-7-5-3-1-2-4-6-8-16-18(10,13)14/h1-8H2,(H2,9,11,12)(H2,10,13,14)

>  <InChIKey>  (43) 
IPTXSYCLIWBHBX-UHFFFAOYSA-N

>  <SMILES>  (43) 
C(CCCCOS(=O)(=O)N)CCCOS(=O)(=O)N

>  <MissingHeavyAtoms>  (43) 
0

>  <Model>  (43) 
1

>  <AltIds>  (43) 


>  <pKI>  (43) 
7.84

>  <ChemblID>  (43) 
CHEMBL182455

>  <standardized_canonical_smiles>  (43) 
NS(=O)(=O)OCCCCCCCCOS(N)(=O)=O

$$$$
3IBN_O60_A_300
     RDKit          3D

 20 19  0  0  0  0  0  0  0  0999 V2000
   -4.9460    1.8050   14.4600 C   0  0  0  0  0  0  0  0  0  0  0  0
   -5.3180   -0.5460   16.0850 N   0  0  0  0  0  0  0  0  0  0  0  0
   -7.1370    1.0470   16.4420 O   0  0  0  0  0  0  0  0  0  0  0  0
   -5.7620    0.8380   16.7080 S   0  0  0  0  0  0  0  0  0  0  0  0
   -4.3150    3.0270   13.9130 C   0  0  0  0  0  0  0  0  0  0  0  0
   -2.0740   12.5430   10.5550 N   0  0  0  0  0  0  0  0  0  0  0  0
   -5.2890    0.8990   18.0460 O   0  0  0  0  0  0  0  0  0  0  0  0
   -2.4700   13.1470   11.9690 S   0  0  0  0  0  0  0  0  0  0  0  0
   -5.1070    4.2790   14.1520 C   0  0  0  0  0  0  0  0  0  0  0  0
   -4.9990    1.9510   15.9130 O   0  0  0  0  0  0  0  0  0  0  0  0
   -4.4740    5.5070   13.5580 C   0  0  0  0  0  0  0  0  0  0  0  0
   -2.4550   11.9550   12.9930 O   0  0  0  0  0  0  0  0  0  0  0  0
   -3.1600    5.8790   14.1790 C   0  0  0  0  0  0  0  0  0  0  0  0
   -1.4450   14.0450   12.3870 O   0  0  0  0  0  0  0  0  0  0  0  0
   -2.5190    7.0420   13.5440 C   0  0  0  0  0  0  0  0  0  0  0  0
   -3.8210   13.5980   11.9070 O   0  0  0  0  0  0  0  0  0  0  0  0
   -1.2880    7.5110   14.2610 C   0  0  0  0  0  0  0  0  0  0  0  0
   -0.7140    8.7900   13.7140 C   0  0  0  0  0  0  0  0  0  0  0  0
   -1.6160    9.9720   13.8960 C   0  0  0  0  0  0  0  0  0  0  0  0
   -1.2730   11.1070   13.0280 C   0  0  0  0  0  0  0  0  0  0  0  0
  5  1  1  0
 10  1  1  0
  4  2  1  0
  4  3  2  0
  7  4  2  0
 10  4  1  0
  9  5  1  0
  8  6  1  0
 12  8  1  0
 14  8  2  0
 16  8  2  0
 11  9  1  0
 13 11  1  0
 20 12  1  0
 15 13  1  0
 17 15  1  0
 18 17  1  0
 19 18  1  0
 20 19  1  0
A    1
C1
A    2
N1
A    3
O1
A    4
S1
A    5
C2
A    6
N2
A    7
O2
A    8
S2
A    9
C3
A   10
O3
A   11
C4
A   12
O4
A   13
C5
A   14
O5
A   15
C6
A   16
O6
A   17
C7
A   18
C8
A   19
C9
A   20
C10
M  END
>  <Id>  (44) 
3IBN_O60_A_300

>  <ChainId>  (44) 
A

>  <AsymId>  (44) 
D

>  <SeqNum>  (44) 
300

>  <Name>  (44) 
decane-1,10-diyl disulfamate

>  <SystematicName>  (44) 
10-sulfamoyloxydecyl sulfamate

>  <Synonyms>  (44) 
1,10-decanediol disulfamate

>  <Type>  (44) 
NON-POLYMER

>  <Formula>  (44) 
C10 H24 N2 O6 S2

>  <ObservedFormula>  (44) 
C10 S2 N2 O6

>  <MolecularWeight>  (44) 
332.437

>  <ModifiedDate>  (44) 
2011-06-04

>  <Parent>  (44) 


>  <OneLetterCode>  (44) 


>  <SubcomponentList>  (44) 


>  <AmbiguousFlag>  (44) 
N

>  <InsertionCode>  (44) 


>  <InstanceId>  (44) 
3IBN_O60_A_300

>  <ChemCompId>  (44) 
O60

>  <PdbId>  (44) 
3IBN

>  <ResidueNumber>  (44) 
300

>  <InChI>  (44) 
InChI=1S/C10H24N2O6S2/c11-19(13,14)17-9-7-5-3-1-2-4-6-8-10-18-20(12,15)16/h1-10H2,(H2,11,13,14)(H2,12,15,16)

>  <InChIKey>  (44) 
XPDWKENHTJHZSC-UHFFFAOYSA-N

>  <SMILES>  (44) 
C(CCCCCOS(=O)(=O)N)CCCCOS(=O)(=O)N

>  <MissingHeavyAtoms>  (44) 
0

>  <Model>  (44) 
1

>  <AltIds>  (44) 


>  <pKI>  (44) 
7.61

>  <ChemblID>  (44) 
CHEMBL171476

>  <standardized_canonical_smiles>  (44) 
NS(=O)(=O)OCCCCCCCCCCOS(N)(=O)=O

$$$$
2QOA_MAJ_A_801
     RDKit          3D

 13 14  0  0  0  0  0  0  0  0999 V2000
   12.3950   -2.4050   12.6590 C   0  0  0  0  0  0  0  0  0  0  0  0
   11.6650   -1.2220   12.7720 C   0  0  0  0  0  0  0  0  0  0  0  0
   11.7240   -0.2130   11.7630 C   0  0  0  0  0  0  0  0  0  0  0  0
   12.5470   -0.4240   10.6290 C   0  0  0  0  0  0  0  0  0  0  0  0
   13.2190   -2.6080   11.5170 C   0  0  0  0  0  0  0  0  0  0  0  0
   13.2710   -1.6020   10.5200 C   0  0  0  0  0  0  0  0  0  0  0  0
   14.1900   -2.0720    9.4630 C   0  0  0  0  0  0  0  0  0  0  0  0
   14.4640   -3.4710    9.7210 C   0  0  0  0  0  0  0  0  0  0  0  0
   14.0850   -3.7380   11.1350 C   0  0  0  0  0  0  0  0  0  0  0  0
   10.6350   -0.9750   14.2130 S   0  0  0  0  0  0  0  0  0  0  0  0
    9.9570   -2.2120   14.4330 O   0  0  0  0  0  0  0  0  0  0  0  0
    9.8740    0.2130   13.9870 O   0  0  0  0  0  0  0  0  0  0  0  0
   11.5630   -0.7110   15.4520 N   0  0  0  0  0  0  0  0  0  0  0  0
  2  1  2  0
  5  1  1  0
  3  2  1  0
 10  2  1  0
  4  3  2  0
  6  4  1  0
  6  5  2  0
  9  5  1  0
  7  6  1  0
  8  7  1  0
  9  8  1  0
 11 10  2  0
 12 10  2  0
 13 10  1  0
A    1
C1
A    2
C2
A    3
C3
A    4
C4
A    5
C5
A    6
C6
A    7
C7
A    8
C8
A    9
C9
A   10
S1
A   11
O1
A   12
O2
A   13
N1
M  END
>  <Id>  (45) 
2QOA_MAJ_A_801

>  <ChainId>  (45) 
A

>  <AsymId>  (45) 
F

>  <SeqNum>  (45) 
801

>  <Name>  (45) 
indane-5-sulfonamide

>  <SystematicName>  (45) 
2,3-dihydro-1H-indene-5-sulfonamide

>  <Synonyms>  (45) 


>  <Type>  (45) 
NON-POLYMER

>  <Formula>  (45) 
C9 H11 N O2 S

>  <ObservedFormula>  (45) 
C9 S N O2

>  <MolecularWeight>  (45) 
197.254

>  <ModifiedDate>  (45) 
2011-06-04

>  <Parent>  (45) 


>  <OneLetterCode>  (45) 


>  <SubcomponentList>  (45) 


>  <AmbiguousFlag>  (45) 


>  <InsertionCode>  (45) 


>  <InstanceId>  (45) 
2QOA_MAJ_A_801

>  <ChemCompId>  (45) 
MAJ

>  <PdbId>  (45) 
2QOA

>  <ResidueNumber>  (45) 
801

>  <InChI>  (45) 
InChI=1S/C9H11NO2S/c10-13(11,12)9-5-4-7-2-1-3-8(7)6-9/h4-6H,1-3H2,(H2,10,11,12)

>  <InChIKey>  (45) 
XVQJTFMKKZBBSX-UHFFFAOYSA-N

>  <SMILES>  (45) 
c1cc2c(cc1S(=O)(=O)N)CCC2

>  <MissingHeavyAtoms>  (45) 
0

>  <Model>  (45) 
1

>  <AltIds>  (45) 


>  <pKI>  (45) 
7.28

>  <ChemblID>  (45) 
CHEMBL364869

>  <standardized_canonical_smiles>  (45) 
NS(=O)(=O)c1ccc2c(c1)CCC2

$$$$
4YXO_4JC_A_305
     RDKit          3D

 12 12  0  0  0  0  0  0  0  0999 V2000
   -1.9950    2.9780   88.2680 O   0  0  0  0  0  0  0  0  0  0  0  0
   -2.5780    2.8460   86.9640 S   0  0  0  0  0  0  0  0  0  0  0  0
   -4.0040    2.9100   86.8450 O   0  0  0  0  0  0  0  0  0  0  0  0
   -2.0840    1.4690   86.3140 N   0  0  0  0  0  0  0  0  0  0  0  0
   -1.9290    4.1620   85.9740 C   0  0  0  0  0  0  0  0  0  0  0  0
   -2.7620    5.1970   85.5780 C   0  0  0  0  0  0  0  0  0  0  0  0
   -2.2420    6.2430   84.8360 C   0  0  0  0  0  0  0  0  0  0  0  0
   -0.5870    4.1700   85.6170 C   0  0  0  0  0  0  0  0  0  0  0  0
   -0.0910    5.2230   84.8670 C   0  0  0  0  0  0  0  0  0  0  0  0
   -0.9090    6.2690   84.4650 C   0  0  0  0  0  0  0  0  0  0  0  0
   -0.3710    7.3930   83.5990 C   0  0  0  0  0  0  0  0  0  0  0  0
    0.3240    8.4780   84.3550 C   0  0  0  0  0  0  0  0  0  0  0  0
  2  1  2  0
  3  2  2  0
  4  2  1  0
  5  2  1  0
  6  5  2  0
  8  5  1  0
  7  6  1  0
 10  7  2  0
  9  8  2  0
 10  9  1  0
 11 10  1  0
 12 11  1  0
A    1
O1
A    2
S
A    3
O
A    4
N
A    5
C5
A    6
C4
A    7
C3
A    8
C6
A    9
C7
A   10
C2
A   11
C1
A   12
C
M  END
>  <Id>  (46) 
4YXO_4JC_A_305

>  <ChainId>  (46) 
A

>  <AsymId>  (46) 
F

>  <SeqNum>  (46) 
305

>  <Name>  (46) 
4-ethylbenzenesulfonamide

>  <SystematicName>  (46) 
4-ethylbenzenesulfonamide

>  <Synonyms>  (46) 


>  <Type>  (46) 
NON-POLYMER

>  <Formula>  (46) 
C8 H11 N O2 S

>  <ObservedFormula>  (46) 
S C8 N O2

>  <MolecularWeight>  (46) 
185.243

>  <ModifiedDate>  (46) 
2016-01-29

>  <Parent>  (46) 


>  <OneLetterCode>  (46) 


>  <SubcomponentList>  (46) 


>  <AmbiguousFlag>  (46) 
N

>  <InsertionCode>  (46) 


>  <InstanceId>  (46) 
4YXO_4JC_A_305

>  <ChemCompId>  (46) 
4JC

>  <PdbId>  (46) 
4YXO

>  <ResidueNumber>  (46) 
305

>  <InChI>  (46) 
InChI=1S/C8H11NO2S/c1-2-7-3-5-8(6-4-7)12(9,10)11/h3-6H,2H2,1H3,(H2,9,10,11)

>  <InChIKey>  (46) 
MLTGAVXHWSDGIS-UHFFFAOYSA-N

>  <SMILES>  (46) 
CCc1ccc(cc1)S(=O)(=O)N

>  <MissingHeavyAtoms>  (46) 
0

>  <Model>  (46) 
1

>  <AltIds>  (46) 


>  <pKI>  (46) 
7.53

>  <ChemblID>  (46) 
CHEMBL358263

>  <standardized_canonical_smiles>  (46) 
CCc1ccc(S(N)(=O)=O)cc1

$$$$
6HQX_4JC_A_306
     RDKit          3D

 11 11  0  0  0  0  0  0  0  0999 V2000
  -11.3200    0.7320   13.6490 O   0  0  0  0  0  0  0  0  0  0  0  0
  -10.6890   -0.4870   14.0570 S   0  0  0  0  0  0  0  0  0  0  0  0
  -11.4910   -1.6430   14.3190 O   0  0  0  0  0  0  0  0  0  0  0  0
   -9.8650   -0.1640   15.4010 N   0  0  0  0  0  0  0  0  0  0  0  0
   -9.5340   -0.9300   12.7950 C   0  0  0  0  0  0  0  0  0  0  0  0
   -9.0940    0.0270   11.8950 C   0  0  0  0  0  0  0  0  0  0  0  0
   -8.2230   -0.3400   10.8850 C   0  0  0  0  0  0  0  0  0  0  0  0
   -9.0880   -2.2370   12.7000 C   0  0  0  0  0  0  0  0  0  0  0  0
   -8.2120   -2.5840   11.6850 C   0  0  0  0  0  0  0  0  0  0  0  0
   -7.7760   -1.6470   10.7590 C   0  0  0  0  0  0  0  0  0  0  0  0
   -6.8510   -2.0370    9.6180 C   0  0  0  0  0  0  0  0  0  0  0  0
  2  1  2  0
  3  2  2  0
  4  2  1  0
  5  2  1  0
  6  5  2  0
  8  5  1  0
  7  6  1  0
 10  7  2  0
  9  8  2  0
 10  9  1  0
 11 10  1  0
A    1
O1
A    2
S
A    3
O
A    4
N
A    5
C5
A    6
C4
A    7
C3
A    8
C6
A    9
C7
A   10
C2
A   11
C1
M  END
>  <Id>  (47) 
6HQX_4JC_A_306

>  <ChainId>  (47) 
A

>  <AsymId>  (47) 
G

>  <SeqNum>  (47) 
306

>  <Name>  (47) 
4-ethylbenzenesulfonamide

>  <SystematicName>  (47) 
4-ethylbenzenesulfonamide

>  <Synonyms>  (47) 


>  <Type>  (47) 
NON-POLYMER

>  <Formula>  (47) 
C8 H11 N O2 S

>  <ObservedFormula>  (47) 
S C7 N O2

>  <MolecularWeight>  (47) 
185.243

>  <ModifiedDate>  (47) 
2016-01-29

>  <Parent>  (47) 


>  <OneLetterCode>  (47) 


>  <SubcomponentList>  (47) 


>  <AmbiguousFlag>  (47) 
N

>  <InsertionCode>  (47) 


>  <InstanceId>  (47) 
6HQX_4JC_A_306

>  <ChemCompId>  (47) 
4JC

>  <PdbId>  (47) 
6HQX

>  <ResidueNumber>  (47) 
306

>  <InChI>  (47) 
InChI=1S/C8H11NO2S/c1-2-7-3-5-8(6-4-7)12(9,10)11/h3-6H,2H2,1H3,(H2,9,10,11)

>  <InChIKey>  (47) 
MLTGAVXHWSDGIS-UHFFFAOYSA-N

>  <SMILES>  (47) 
CCc1ccc(cc1)S(=O)(=O)N

>  <MissingHeavyAtoms>  (47) 
1

>  <Model>  (47) 
1

>  <AltIds>  (47) 


>  <pKI>  (47) 
7.53

>  <ChemblID>  (47) 
CHEMBL358263

>  <standardized_canonical_smiles>  (47) 
CCc1ccc(S(N)(=O)=O)cc1

$$$$
4YXU_4JE_A_305
     RDKit          3D

 13 13  0  0  0  0  0  0  0  0999 V2000
    0.9230    9.1200   84.1010 C   0  0  0  0  0  0  0  0  0  0  0  0
   -0.3630    5.0300   85.5000 C   0  0  0  0  0  0  0  0  0  0  0  0
   -0.0200    8.1730   83.3910 C   0  0  0  0  0  0  0  0  0  0  0  0
   -1.9550    7.0990   84.5930 C   0  0  0  0  0  0  0  0  0  0  0  0
   -0.6050    7.0920   84.2710 C   0  0  0  0  0  0  0  0  0  0  0  0
   -1.8590    3.9030   88.1200 O   0  0  0  0  0  0  0  0  0  0  0  0
   -2.4180    3.7640   86.8000 S   0  0  0  0  0  0  0  0  0  0  0  0
   -3.8410    3.8630   86.6670 O   0  0  0  0  0  0  0  0  0  0  0  0
   -1.9470    2.3610   86.2000 N   0  0  0  0  0  0  0  0  0  0  0  0
   -1.7140    5.0500   85.8050 C   0  0  0  0  0  0  0  0  0  0  0  0
    0.1790    6.0500   84.7410 C   0  0  0  0  0  0  0  0  0  0  0  0
   -2.5160    6.0870   85.3510 C   0  0  0  0  0  0  0  0  0  0  0  0
    1.5820   10.1110   83.1700 C   0  0  0  0  0  0  0  0  0  0  0  0
  3  1  1  0
 13  1  1  0
 10  2  2  0
 11  2  1  0
  5  3  1  0
  5  4  1  0
 12  4  2  0
 11  5  2  0
  7  6  2  0
  8  7  2  0
  9  7  1  0
 10  7  1  0
 12 10  1  0
A    1
C1
A    2
C5
A    3
C2
A    4
C8
A    5
C3
A    6
O1
A    7
S
A    8
O
A    9
N
A   10
C6
A   11
C4
A   12
C7
A   13
C
M  END
>  <Id>  (48) 
4YXU_4JE_A_305

>  <ChainId>  (48) 
A

>  <AsymId>  (48) 
F

>  <SeqNum>  (48) 
305

>  <Name>  (48) 
4-propylbenzenesulfonamide

>  <SystematicName>  (48) 
4-propylbenzenesulfonamide

>  <Synonyms>  (48) 


>  <Type>  (48) 
NON-POLYMER

>  <Formula>  (48) 
C9 H13 N O2 S

>  <ObservedFormula>  (48) 
C9 S N O2

>  <MolecularWeight>  (48) 
199.27

>  <ModifiedDate>  (48) 
2016-01-29

>  <Parent>  (48) 


>  <OneLetterCode>  (48) 


>  <SubcomponentList>  (48) 


>  <AmbiguousFlag>  (48) 
N

>  <InsertionCode>  (48) 


>  <InstanceId>  (48) 
4YXU_4JE_A_305

>  <ChemCompId>  (48) 
4JE

>  <PdbId>  (48) 
4YXU

>  <ResidueNumber>  (48) 
305

>  <InChI>  (48) 
InChI=1S/C9H13NO2S/c1-2-3-8-4-6-9(7-5-8)13(10,11)12/h4-7H,2-3H2,1H3,(H2,10,11,12)

>  <InChIKey>  (48) 
CICCMHNIYTXWRF-UHFFFAOYSA-N

>  <SMILES>  (48) 
CCCc1ccc(cc1)S(=O)(=O)N

>  <MissingHeavyAtoms>  (48) 
0

>  <Model>  (48) 
1

>  <AltIds>  (48) 


>  <pKI>  (48) 
7.77

>  <ChemblID>  (48) 
CHEMBL148660

>  <standardized_canonical_smiles>  (48) 
CCCc1ccc(S(N)(=O)=O)cc1

$$$$
6HR3_4JE_A_305
     RDKit          3D

 13 13  0  0  0  0  0  0  0  0999 V2000
  -23.7570    6.5740   14.1380 C   0  0  0  0  0  0  0  0  0  0  0  0
  -27.2580    3.5150   15.4780 C   0  0  0  0  0  0  0  0  0  0  0  0
  -24.8690    5.7350   13.5490 C   0  0  0  0  0  0  0  0  0  0  0  0
  -24.5760    3.5480   14.7930 C   0  0  0  0  0  0  0  0  0  0  0  0
  -25.3940    4.6060   14.4050 C   0  0  0  0  0  0  0  0  0  0  0  0
  -28.5150    1.2250   16.7180 O   0  0  0  0  0  0  0  0  0  0  0  0
  -27.0910    1.1390   16.8460 S   0  0  0  0  0  0  0  0  0  0  0  0
  -26.5170    1.3160   18.1650 O   0  0  0  0  0  0  0  0  0  0  0  0
  -26.5810   -0.2180   16.2230 N   0  0  0  0  0  0  0  0  0  0  0  0
  -26.4360    2.4590   15.8560 C   0  0  0  0  0  0  0  0  0  0  0  0
  -26.7290    4.5810   14.7700 C   0  0  0  0  0  0  0  0  0  0  0  0
  -25.0870    2.4790   15.5180 C   0  0  0  0  0  0  0  0  0  0  0  0
  -23.2990    7.6720   13.1940 C   0  0  0  0  0  0  0  0  0  0  0  0
  3  1  1  0
 13  1  1  0
 10  2  2  0
 11  2  1  0
  5  3  1  0
  5  4  1  0
 12  4  2  0
 11  5  2  0
  7  6  2  0
  8  7  2  0
  9  7  1  0
 10  7  1  0
 12 10  1  0
A    1
C1
A    2
C5
A    3
C2
A    4
C8
A    5
C3
A    6
O1
A    7
S
A    8
O
A    9
N
A   10
C6
A   11
C4
A   12
C7
A   13
C
M  END
>  <Id>  (49) 
6HR3_4JE_A_305

>  <ChainId>  (49) 
A

>  <AsymId>  (49) 
F

>  <SeqNum>  (49) 
305

>  <Name>  (49) 
4-propylbenzenesulfonamide

>  <SystematicName>  (49) 
4-propylbenzenesulfonamide

>  <Synonyms>  (49) 


>  <Type>  (49) 
NON-POLYMER

>  <Formula>  (49) 
C9 H13 N O2 S

>  <ObservedFormula>  (49) 
C9 S N O2

>  <MolecularWeight>  (49) 
199.27

>  <ModifiedDate>  (49) 
2016-01-29

>  <Parent>  (49) 


>  <OneLetterCode>  (49) 


>  <SubcomponentList>  (49) 


>  <AmbiguousFlag>  (49) 
N

>  <InsertionCode>  (49) 


>  <InstanceId>  (49) 
6HR3_4JE_A_305

>  <ChemCompId>  (49) 
4JE

>  <PdbId>  (49) 
6HR3

>  <ResidueNumber>  (49) 
305

>  <InChI>  (49) 
InChI=1S/C9H13NO2S/c1-2-3-8-4-6-9(7-5-8)13(10,11)12/h4-7H,2-3H2,1H3,(H2,10,11,12)

>  <InChIKey>  (49) 
CICCMHNIYTXWRF-UHFFFAOYSA-N

>  <SMILES>  (49) 
CCCc1ccc(cc1)S(=O)(=O)N

>  <MissingHeavyAtoms>  (49) 
0

>  <Model>  (49) 
1

>  <AltIds>  (49) 


>  <pKI>  (49) 
7.77

>  <ChemblID>  (49) 
CHEMBL148660

>  <standardized_canonical_smiles>  (49) 
CCCc1ccc(S(N)(=O)=O)cc1

$$$$
6HXD_6YP_A_305
     RDKit          3D

 14 14  0  0  0  0  0  0  0  0999 V2000
   16.8320    5.0890   14.3750 C   0  0  0  0  0  0  0  0  0  0  0  0
   18.2940    7.1460   14.2790 C   0  0  0  0  0  0  0  0  0  0  0  0
   17.1660    2.9660   15.4960 C   0  0  0  0  0  0  0  0  0  0  0  0
   17.6590    4.0440   14.7710 C   0  0  0  0  0  0  0  0  0  0  0  0
   14.9790    3.9790   15.4640 C   0  0  0  0  0  0  0  0  0  0  0  0
   13.7530    1.6690   16.6760 O   0  0  0  0  0  0  0  0  0  0  0  0
   15.1820    1.6010   16.8020 S   0  0  0  0  0  0  0  0  0  0  0  0
   15.7500    1.7460   18.1120 O   0  0  0  0  0  0  0  0  0  0  0  0
   15.7160    0.2460   16.1410 N   0  0  0  0  0  0  0  0  0  0  0  0
   15.8220    2.9390   15.8430 C   0  0  0  0  0  0  0  0  0  0  0  0
   15.4950    5.0450   14.7430 C   0  0  0  0  0  0  0  0  0  0  0  0
   17.3670    6.2200   13.5330 C   0  0  0  0  0  0  0  0  0  0  0  0
   18.8460    8.2890   13.4660 C   0  0  0  0  0  0  0  0  0  0  0  0
   19.6570    9.2230   14.3380 C   0  0  0  0  0  0  0  0  0  0  0  0
  4  1  2  0
 11  1  1  0
 12  1  1  0
 12  2  1  0
 13  2  1  0
  4  3  1  0
 10  3  2  0
 10  5  1  0
 11  5  2  0
  7  6  2  0
  8  7  2  0
  9  7  1  0
 10  7  1  0
 14 13  1  0
A    1
C4
A    2
C2
A    3
C6
A    4
C5
A    5
C8
A    6
O1
A    7
S
A    8
O
A    9
N
A   10
C7
A   11
C9
A   12
C3
A   13
C1
A   14
C
M  END
>  <Id>  (50) 
6HXD_6YP_A_305

>  <ChainId>  (50) 
A

>  <AsymId>  (50) 
F

>  <SeqNum>  (50) 
305

>  <Name>  (50) 
4-butylbenzenesulfonamide

>  <SystematicName>  (50) 
4-butylbenzenesulfonamide

>  <Synonyms>  (50) 


>  <Type>  (50) 
NON-POLYMER

>  <Formula>  (50) 
C10 H15 N O2 S

>  <ObservedFormula>  (50) 
C10 S N O2

>  <MolecularWeight>  (50) 
213.297

>  <ModifiedDate>  (50) 
2017-08-11

>  <Parent>  (50) 


>  <OneLetterCode>  (50) 


>  <SubcomponentList>  (50) 


>  <AmbiguousFlag>  (50) 
N

>  <InsertionCode>  (50) 


>  <InstanceId>  (50) 
6HXD_6YP_A_305

>  <ChemCompId>  (50) 
6YP

>  <PdbId>  (50) 
6HXD

>  <ResidueNumber>  (50) 
305

>  <InChI>  (50) 
InChI=1S/C10H15NO2S/c1-2-3-4-9-5-7-10(8-6-9)14(11,12)13/h5-8H,2-4H2,1H3,(H2,11,12,13)

>  <InChIKey>  (50) 
IWEMSJAOIKQBBZ-UHFFFAOYSA-N

>  <SMILES>  (50) 
CCCCc1ccc(cc1)S(=O)(=O)N

>  <MissingHeavyAtoms>  (50) 
0

>  <Model>  (50) 
1

>  <AltIds>  (50) 


>  <pKI>  (50) 
8.3

>  <ChemblID>  (50) 
CHEMBL150043

>  <standardized_canonical_smiles>  (50) 
CCCCc1ccc(S(N)(=O)=O)cc1

$$$$
5LL8_6YP_A_306
     RDKit          3D

 14 14  0  0  0  0  0  0  0  0999 V2000
   17.0210    3.7020   14.2060 C   0  0  0  0  0  0  0  0  0  0  0  0
   18.3480    5.8740   14.2460 C   0  0  0  0  0  0  0  0  0  0  0  0
   15.1520    2.6570   15.3290 C   0  0  0  0  0  0  0  0  0  0  0  0
   15.6820    3.6850   14.5670 C   0  0  0  0  0  0  0  0  0  0  0  0
   17.3150    1.6140   15.3940 C   0  0  0  0  0  0  0  0  0  0  0  0
   15.8730    0.4810   18.0610 O   0  0  0  0  0  0  0  0  0  0  0  0
   15.3150    0.3050   16.7450 S   0  0  0  0  0  0  0  0  0  0  0  0
   13.8830    0.4200   16.6580 O   0  0  0  0  0  0  0  0  0  0  0  0
   15.8140   -1.0190   16.1130 N   0  0  0  0  0  0  0  0  0  0  0  0
   15.9730    1.6130   15.7450 C   0  0  0  0  0  0  0  0  0  0  0  0
   17.8240    2.6500   14.6260 C   0  0  0  0  0  0  0  0  0  0  0  0
   17.5920    4.8400   13.3880 C   0  0  0  0  0  0  0  0  0  0  0  0
   18.9630    7.0170   13.4670 C   0  0  0  0  0  0  0  0  0  0  0  0
   19.7230    7.9450   14.3610 C   0  0  0  0  0  0  0  0  0  0  0  0
  4  1  2  0
 11  1  1  0
 12  1  1  0
 12  2  1  0
 13  2  1  0
  4  3  1  0
 10  3  2  0
 10  5  1  0
 11  5  2  0
  7  6  2  0
  8  7  2  0
  9  7  1  0
 10  7  1  0
 14 13  1  0
A    1
C4
A    2
C2
A    3
C6
A    4
C5
A    5
C8
A    6
O1
A    7
S
A    8
O
A    9
N
A   10
C7
A   11
C9
A   12
C3
A   13
C1
A   14
C
M  END
>  <Id>  (51) 
5LL8_6YP_A_306

>  <ChainId>  (51) 
A

>  <AsymId>  (51) 
G

>  <SeqNum>  (51) 
306

>  <Name>  (51) 
4-butylbenzenesulfonamide

>  <SystematicName>  (51) 
4-butylbenzenesulfonamide

>  <Synonyms>  (51) 


>  <Type>  (51) 
NON-POLYMER

>  <Formula>  (51) 
C10 H15 N O2 S

>  <ObservedFormula>  (51) 
C10 S N O2

>  <MolecularWeight>  (51) 
213.297

>  <ModifiedDate>  (51) 
2017-08-11

>  <Parent>  (51) 


>  <OneLetterCode>  (51) 


>  <SubcomponentList>  (51) 


>  <AmbiguousFlag>  (51) 
N

>  <InsertionCode>  (51) 


>  <InstanceId>  (51) 
5LL8_6YP_A_306

>  <ChemCompId>  (51) 
6YP

>  <PdbId>  (51) 
5LL8

>  <ResidueNumber>  (51) 
306

>  <InChI>  (51) 
InChI=1S/C10H15NO2S/c1-2-3-4-9-5-7-10(8-6-9)14(11,12)13/h5-8H,2-4H2,1H3,(H2,11,12,13)

>  <InChIKey>  (51) 
IWEMSJAOIKQBBZ-UHFFFAOYSA-N

>  <SMILES>  (51) 
CCCCc1ccc(cc1)S(=O)(=O)N

>  <MissingHeavyAtoms>  (51) 
0

>  <Model>  (51) 
1

>  <AltIds>  (51) 


>  <pKI>  (51) 
8.3

>  <ChemblID>  (51) 
CHEMBL150043

>  <standardized_canonical_smiles>  (51) 
CCCCc1ccc(S(N)(=O)=O)cc1

$$$$
3MNU_BON_A_265
     RDKit          3D

 20 21  0  0  0  0  0  0  0  0999 V2000
   -5.0350    6.8770   12.6790 B   0  0  0  0  0  0  0  0  0  0  0  0
   -4.7000    2.9870   14.6850 C   0  0  0  0  0  0  0  0  0  0  0  0
   -5.2300   -0.6310   16.1300 N   0  0  0  0  0  0  0  0  0  0  0  0
   -6.8580    1.2100   16.0640 O   0  0  0  0  0  0  0  0  0  0  0  0
   -5.4890    0.9080   16.3630 S   0  0  0  0  0  0  0  0  0  0  0  0
   -5.9570    3.6560   14.6490 C   0  0  0  0  0  0  0  0  0  0  0  0
   -4.5210    1.6990   15.2960 N   0  0  0  0  0  0  0  0  0  0  0  0
   -5.0090    1.2590   17.6670 O   0  0  0  0  0  0  0  0  0  0  0  0
   -6.0590    4.9150   14.0080 C   0  0  0  0  0  0  0  0  0  0  0  0
   -3.9810    7.7330   12.5110 O   0  0  0  0  0  0  0  0  0  0  0  0
   -4.9260    5.5080   13.4060 C   0  0  0  0  0  0  0  0  0  0  0  0
   -6.1850    7.3330   12.0990 O   0  0  0  0  0  0  0  0  0  0  0  0
   -3.6890    4.8460   13.4530 C   0  0  0  0  0  0  0  0  0  0  0  0
   -3.5680    3.5940   14.0860 C   0  0  0  0  0  0  0  0  0  0  0  0
   -4.2180    8.4890   11.2640 C   0  0  0  0  0  0  0  0  0  0  0  0
   -5.7900    8.2040   10.9680 C   0  0  0  0  0  0  0  0  0  0  0  0
   -3.2260    7.9560   10.2280 C   0  0  0  0  0  0  0  0  0  0  0  0
   -3.8420    9.9440   11.5550 C   0  0  0  0  0  0  0  0  0  0  0  0
   -6.7050    9.4210   11.0320 C   0  0  0  0  0  0  0  0  0  0  0  0
   -6.1040    7.4340    9.6790 C   0  0  0  0  0  0  0  0  0  0  0  0
 10  1  1  0
 11  1  1  0
 12  1  1  0
  6  2  2  0
  7  2  1  0
 14  2  1  0
  5  3  1  0
  5  4  2  0
  7  5  1  0
  8  5  2  0
  9  6  1  0
 11  9  2  0
 15 10  1  0
 13 11  1  0
 16 12  1  0
 14 13  2  0
 16 15  1  0
 17 15  1  0
 18 15  1  0
 19 16  1  0
 20 16  1  0
A    1
B
A    2
C1
A    3
N1
A    4
O1
A    5
S1
A    6
C2
A    7
N2
A    8
O2
A    9
C3
A   10
O3
A   11
C4
A   12
O4
A   13
C5
A   14
C6
A   15
C7
A   16
C8
A   17
C9
A   18
C10
A   19
C11
A   20
C12
M  END
>  <Id>  (52) 
3MNU_BON_A_265

>  <ChainId>  (52) 
A

>  <AsymId>  (52) 
E

>  <SeqNum>  (52) 
265

>  <Name>  (52) 
N-[4-(4,4,5,5-tetramethyl-1,3,2-dioxaborolan-2-yl)phenyl]sulfamide

>  <SystematicName>  (52) 
4,4,5,5-tetramethyl-2-[4-(sulfamoylamino)phenyl]-1,3,2-dioxaborolane

>  <Synonyms>  (52) 


>  <Type>  (52) 
NON-POLYMER

>  <Formula>  (52) 
C12 H19 B N2 O4 S

>  <ObservedFormula>  (52) 
B C12 S N2 O4

>  <MolecularWeight>  (52) 
298.166

>  <ModifiedDate>  (52) 
2011-06-04

>  <Parent>  (52) 


>  <OneLetterCode>  (52) 


>  <SubcomponentList>  (52) 


>  <AmbiguousFlag>  (52) 
N

>  <InsertionCode>  (52) 


>  <InstanceId>  (52) 
3MNU_BON_A_265

>  <ChemCompId>  (52) 
BON

>  <PdbId>  (52) 
3MNU

>  <ResidueNumber>  (52) 
265

>  <InChI>  (52) 
InChI=1S/C12H19BN2O4S/c1-11(2)12(3,4)19-13(18-11)9-5-7-10(8-6-9)15-20(14,16)17/h5-8,15H,1-4H3,(H2,14,16,17)

>  <InChIKey>  (52) 
YQWUJQMJCQBCRA-UHFFFAOYSA-N

>  <SMILES>  (52) 
B1(OC(C(O1)(C)C)(C)C)c2ccc(cc2)NS(=O)(=O)N

>  <MissingHeavyAtoms>  (52) 
0

>  <Model>  (52) 
1

>  <AltIds>  (52) 


>  <pKI>  (52) 
7.32

>  <ChemblID>  (52) 
CHEMBL190447

>  <standardized_canonical_smiles>  (52) 
CC1(C)OB(c2ccc(NS(N)(=O)=O)cc2)OC1(C)C

$$$$
2QO8_3CC_A_800
     RDKit          3D

 23 24  0  0  0  0  0  0  0  0999 V2000
   -4.1360    2.5460   15.0980 C   0  0  0  0  0  0  0  0  0  0  0  0
   -5.3780    2.4270   15.7410 C   0  0  0  0  0  0  0  0  0  0  0  0
   -6.3370    3.4800   15.7110 C   0  0  0  0  0  0  0  0  0  0  0  0
   -6.0410    4.6680   15.0240 C   0  0  0  0  0  0  0  0  0  0  0  0
   -3.8470    3.7650   14.4010 C   0  0  0  0  0  0  0  0  0  0  0  0
   -4.8280    4.7930   14.3920 C   0  0  0  0  0  0  0  0  0  0  0  0
   -4.2810    5.9060   13.6180 C   0  0  0  0  0  0  0  0  0  0  0  0
   -3.2090    5.3530   12.8240 C   0  0  0  0  0  0  0  0  0  0  0  0
   -2.6640    4.2220   13.6290 C   0  0  0  0  0  0  0  0  0  0  0  0
   -5.8200    0.9510   16.6350 S   0  0  0  0  0  0  0  0  0  0  0  0
   -5.2710    1.0780   17.9540 O   0  0  0  0  0  0  0  0  0  0  0  0
   -7.2490    0.8090   16.5010 O   0  0  0  0  0  0  0  0  0  0  0  0
   -5.1460   -0.3060   15.9840 N   0  0  0  0  0  0  0  0  0  0  0  0
   -2.1590    6.3770   12.5290 N   0  0  0  0  0  0  0  0  0  0  0  0
   -2.3190    7.4950   11.7640 C   0  0  0  0  0  0  0  0  0  0  0  0
   -3.4470    7.6510   11.2820 O   0  0  0  0  0  0  0  0  0  0  0  0
   -1.2010    8.5590   11.4660 C   0  0  0  0  0  0  0  0  0  0  0  0
   -0.5330    9.0940   12.7750 C   0  0  0  0  0  0  0  0  0  0  0  0
   -1.4750    9.6020   13.8930 C   0  0  0  0  0  0  0  0  0  0  0  0
   -0.8660    9.3860   15.2820 C   0  0  0  0  0  0  0  0  0  0  0  0
   -0.1390    7.9690   10.4650 C   0  0  0  0  0  0  0  0  0  0  0  0
   -0.6710    7.3110    9.1660 C   0  0  0  0  0  0  0  0  0  0  0  0
   -0.6590    8.2810    7.9780 C   0  0  0  0  0  0  0  0  0  0  0  0
  2  1  2  0
  5  1  1  0
  3  2  1  0
 10  2  1  0
  4  3  2  0
  6  4  1  0
  6  5  2  0
  9  5  1  0
  7  6  1  0
  8  7  1  0
  9  8  1  0
 14  8  1  0
 11 10  2  0
 12 10  2  0
 13 10  1  0
 15 14  1  0
 16 15  2  0
 17 15  1  0
 18 17  1  0
 21 17  1  0
 19 18  1  0
 20 19  1  0
 22 21  1  0
 23 22  1  0
A    1
C1
A    2
C2
A    3
C3
A    4
C4
A    5
C5
A    6
C6
A    7
C7
A    8
C8
A    9
C9
A   10
S1
A   11
O1
A   12
O2
A   13
N1
A   14
N2
A   15
C10
A   16
O3
A   17
C11
A   18
C12
A   19
C13
A   20
C14
A   21
C15
A   22
C16
A   23
C17
M  END
>  <Id>  (53) 
2QO8_3CC_A_800

>  <ChainId>  (53) 
A

>  <AsymId>  (53) 
D

>  <SeqNum>  (53) 
800

>  <Name>  (53) 
N-[(2R)-5-(aminosulfonyl)-2,3-dihydro-1H-inden-2-yl]-2-propylpentanamide

>  <SystematicName>  (53) 
2-propyl-N-[(2R)-5-sulfamoyl-2,3-dihydro-1H-inden-2-yl]pentanamide

>  <Synonyms>  (53) 


>  <Type>  (53) 
NON-POLYMER

>  <Formula>  (53) 
C17 H26 N2 O3 S

>  <ObservedFormula>  (53) 
C17 S N2 O3

>  <MolecularWeight>  (53) 
338.465

>  <ModifiedDate>  (53) 
2011-06-04

>  <Parent>  (53) 


>  <OneLetterCode>  (53) 


>  <SubcomponentList>  (53) 


>  <AmbiguousFlag>  (53) 


>  <InsertionCode>  (53) 


>  <InstanceId>  (53) 
2QO8_3CC_A_800

>  <ChemCompId>  (53) 
3CC

>  <PdbId>  (53) 
2QO8

>  <ResidueNumber>  (53) 
800

>  <InChI>  (53) 
InChI=1S/C17H26N2O3S/c1-3-5-12(6-4-2)17(20)19-15-9-13-7-8-16(23(18,21)22)11-14(13)10-15/h7-8,11-12,15H,3-6,9-10H2,1-2H3,(H,19,20)(H2,18,21,22)/t15-/m1/s1

>  <InChIKey>  (53) 
XBYJCVDSFWJBSM-OAHLLOKOSA-N

>  <SMILES>  (53) 
CCCC(CCC)C(=O)N[C@@H]1Cc2ccc(cc2C1)S(=O)(=O)N

>  <MissingHeavyAtoms>  (53) 
0

>  <Model>  (53) 
1

>  <AltIds>  (53) 


>  <pKI>  (53) 
9.05

>  <ChemblID>  (53) 
CHEMBL381730

>  <standardized_canonical_smiles>  (53) 
CCCC(CCC)C(=O)NC1Cc2ccc(S(N)(=O)=O)cc2C1

$$$$
2H15_B19_A_300
     RDKit          3D

 22 24  0  0  0  0  0  0  0  0999 V2000
   -5.9730    6.2820   13.1580 C   0  0  0  0  0  0  0  0  0  0  0  0
   -4.7800    5.4260   12.7050 C   0  0  0  0  0  0  0  0  0  0  0  0
   -3.6980    6.2740   12.0100 C   0  0  0  0  0  0  0  0  0  0  0  0
   -4.2050    4.7510   13.8330 O   0  0  0  0  0  0  0  0  0  0  0  0
   -5.2540    4.4350   11.8230 O   0  0  0  0  0  0  0  0  0  0  0  0
   -5.3600    3.1990   12.5460 C   0  0  0  0  0  0  0  0  0  0  0  0
   -5.0790    2.1240   11.4660 C   0  0  0  0  0  0  0  0  0  0  0  0
   -4.9300    0.7730   11.9800 O   0  0  0  0  0  0  0  0  0  0  0  0
   -4.1180    0.1070   11.0170 C   0  0  0  0  0  0  0  0  0  0  0  0
   -4.9860   -0.6930   10.0430 C   0  0  0  0  0  0  0  0  0  0  0  0
   -3.1520   -0.8040   11.7480 C   0  0  0  0  0  0  0  0  0  0  0  0
   -3.3680    1.1240   10.2760 O   0  0  0  0  0  0  0  0  0  0  0  0
   -3.7350    2.3980   10.8030 C   0  0  0  0  0  0  0  0  0  0  0  0
   -2.6520    2.8460   11.8040 C   0  0  0  0  0  0  0  0  0  0  0  0
   -3.0240    2.8230   13.2180 O   0  0  0  0  0  0  0  0  0  0  0  0
   -4.3090    3.3770   13.6260 C   0  0  0  0  0  0  0  0  0  0  0  0
   -4.8130    2.9000   14.9690 C   0  0  0  0  0  0  0  0  0  0  0  0
   -4.5530    1.4760   15.0850 N   0  0  0  0  0  0  0  0  0  0  0  0
   -5.3700    0.8250   16.3620 S   0  0  0  0  0  0  0  0  0  0  0  0
   -4.7400    1.1670   17.6670 O   0  0  0  0  0  0  0  0  0  0  0  0
   -6.7990    1.2430   16.4470 O   0  0  0  0  0  0  0  0  0  0  0  0
   -5.1920   -0.7630   16.1050 N   0  0  0  0  0  0  0  0  0  0  0  0
  2  1  1  0
  3  2  1  0
  4  2  1  0
  5  2  1  0
 16  4  1  0
  6  5  1  0
  7  6  1  0
 16  6  1  0
  8  7  1  0
 13  7  1  0
  9  8  1  0
 10  9  1  0
 11  9  1  0
 12  9  1  0
 13 12  1  0
 14 13  1  0
 15 14  1  0
 16 15  1  0
 17 16  1  0
 18 17  1  0
 19 18  1  0
 20 19  2  0
 21 19  2  0
 22 19  1  0
A    1
C11
A    2
C10
A    3
C12
A    4
O3
A    5
O4
A    6
C3
A    7
C4
A    8
O5
A    9
C7
A   10
C8
A   11
C9
A   12
O6
A   13
C5
A   14
C6
A   15
O2
A   16
C2
A   17
C1
A   18
N2
A   19
S1
A   20
O7
A   21
O8
A   22
N1
M  END
>  <Id>  (54) 
2H15_B19_A_300

>  <ChainId>  (54) 
A

>  <AsymId>  (54) 
D

>  <SeqNum>  (54) 
300

>  <Name>  (54) 
N-{[(3AS,5AR,8AR,8BS)-2,2,7,7-TETRAMETHYLTETRAHYDRO-3AH-BIS[1,3]DIOXOLO[4,5-B:4',5'-D]PYRAN-3A-YL]METHYL}SULFAMIDE

>  <SystematicName>  (54) 
null

>  <Synonyms>  (54) 


>  <Type>  (54) 
NON-POLYMER

>  <Formula>  (54) 
C12 H22 N2 O7 S

>  <ObservedFormula>  (54) 
C12 S N2 O7

>  <MolecularWeight>  (54) 
338.377

>  <ModifiedDate>  (54) 
2011-06-04

>  <Parent>  (54) 


>  <OneLetterCode>  (54) 


>  <SubcomponentList>  (54) 


>  <AmbiguousFlag>  (54) 
N

>  <InsertionCode>  (54) 


>  <InstanceId>  (54) 
2H15_B19_A_300

>  <ChemCompId>  (54) 
B19

>  <PdbId>  (54) 
2H15

>  <ResidueNumber>  (54) 
300

>  <InChI>  (54) 
InChI=1S/C12H22N2O7S/c1-10(2)18-7-5-17-12(6-14-22(13,15)16)9(8(7)19-10)20-11(3,4)21-12/h7-9,14H,5-6H2,1-4H3,(H2,13,15,16)/t7-,8-,9+,12+/m1/s1

>  <InChIKey>  (54) 
NQRKKQKMTGLNOZ-XBWDGYHZSA-N

>  <SMILES>  (54) 
CC1(O[C@@H]2CO[C@@]3([C@H]([C@@H]2O1)OC(O3)(C)C)CNS(=O)(=O)N)C

>  <MissingHeavyAtoms>  (54) 
0

>  <Model>  (54) 
1

>  <AltIds>  (54) 


>  <pKI>  (54) 
5.67

>  <ChemblID>  (54) 
CHEMBL283695

>  <standardized_canonical_smiles>  (54) 
CC1(C)O[C@@H]2CO[C@@]3(CNS(N)(=O)=O)OC(C)(C)O[C@H]3[C@@H]2O1

$$$$
2GEH_NHY_A_300
     RDKit          3D

  5  4  0  0  0  0  0  0  0  0999 V2000
   -5.1940    1.0950   17.9130 O   0  0  0  0  0  0  0  0  0  0  0  0
   -6.1830    0.9410   17.2320 C   0  0  0  0  0  0  0  0  0  0  0  0
   -7.2830    1.6640   17.4460 N   0  0  0  0  0  0  0  0  0  0  0  0
   -6.1920    0.0510   16.2520 N   0  0  0  0  0  0  0  0  0  0  0  0
   -5.0850   -0.7370   15.9680 O   0  0  0  0  0  0  0  0  0  0  0  0
  2  1  2  0
  3  2  1  0
  4  2  1  0
  5  4  1  0
A    1
O2
A    2
C
A    3
N2
A    4
N1
A    5
O1
M  END
>  <Id>  (55) 
2GEH_NHY_A_300

>  <ChainId>  (55) 
A

>  <AsymId>  (55) 
E

>  <SeqNum>  (55) 
300

>  <Name>  (55) 
N-HYDROXYUREA

>  <SystematicName>  (55) 
hydroxyurea

>  <Synonyms>  (55) 
1-HYDROXYUREA

>  <Type>  (55) 
NON-POLYMER

>  <Formula>  (55) 
C H4 N2 O2

>  <ObservedFormula>  (55) 
C N2 O2

>  <MolecularWeight>  (55) 
76.055

>  <ModifiedDate>  (55) 
2011-06-04

>  <Parent>  (55) 


>  <OneLetterCode>  (55) 


>  <SubcomponentList>  (55) 


>  <AmbiguousFlag>  (55) 
N

>  <InsertionCode>  (55) 


>  <InstanceId>  (55) 
2GEH_NHY_A_300

>  <ChemCompId>  (55) 
NHY

>  <PdbId>  (55) 
2GEH

>  <ResidueNumber>  (55) 
300

>  <InChI>  (55) 
InChI=1S/CH4N2O2/c2-1(4)3-5/h5H,(H3,2,3,4)

>  <InChIKey>  (55) 
VSNHCAURESNICA-UHFFFAOYSA-N

>  <SMILES>  (55) 
C(=O)(N)NO

>  <MissingHeavyAtoms>  (55) 
0

>  <Model>  (55) 
1

>  <AltIds>  (55) 


>  <pKI>  (55) 
4.55

>  <ChemblID>  (55) 
CHEMBL467

>  <standardized_canonical_smiles>  (55) 
NC(=O)NO

$$$$
2HD6_BOS_A_266
     RDKit          3D

 20 21  0  0  0  0  0  0  0  0999 V2000
   -5.3400   -0.5360   15.9860 N   0  0  0  0  0  0  0  0  0  0  0  0
   -5.9140    0.8420   16.6720 S   0  0  0  0  0  0  0  0  0  0  0  0
   -5.3600    0.8590   17.9970 O   0  0  0  0  0  0  0  0  0  0  0  0
   -7.3280    0.8260   16.5340 O   0  0  0  0  0  0  0  0  0  0  0  0
   -5.2400    2.1820   15.7720 C   0  0  0  0  0  0  0  0  0  0  0  0
   -3.8790    2.1650   15.4100 C   0  0  0  0  0  0  0  0  0  0  0  0
   -3.3290    3.2450   14.6960 C   0  0  0  0  0  0  0  0  0  0  0  0
   -4.1410    4.3630   14.3340 C   0  0  0  0  0  0  0  0  0  0  0  0
   -5.5120    4.3620   14.7060 C   0  0  0  0  0  0  0  0  0  0  0  0
   -6.0560    3.2780   15.4200 C   0  0  0  0  0  0  0  0  0  0  0  0
   -3.6230    5.4800   13.6190 N   0  0  0  0  0  0  0  0  0  0  0  0
   -2.3490    5.7700   13.1940 C   0  0  0  0  0  0  0  0  0  0  0  0
   -1.3650    5.0690   13.3650 O   0  0  0  0  0  0  0  0  0  0  0  0
   -2.2570    7.0880   12.4680 C   0  0  0  0  0  0  0  0  0  0  0  0
   -1.5670    8.1470   13.1110 C   0  0  0  0  0  0  0  0  0  0  0  0
   -1.4390    9.4050   12.5000 C   0  0  0  0  0  0  0  0  0  0  0  0
   -1.9990    9.6430   11.2200 C   0  0  0  0  0  0  0  0  0  0  0  0
   -2.6890    8.6060   10.5610 C   0  0  0  0  0  0  0  0  0  0  0  0
   -2.8330    7.3230   11.1610 C   0  0  0  0  0  0  0  0  0  0  0  0
   -3.7220    6.0140   10.2970 S   0  0  0  0  0  0  0  0  0  0  0  0
  2  1  1  0
  3  2  2  0
  4  2  2  0
  5  2  1  0
  6  5  2  0
 10  5  1  0
  7  6  1  0
  8  7  2  0
  9  8  1  0
 11  8  1  0
 10  9  2  0
 12 11  1  0
 13 12  2  0
 14 12  1  0
 15 14  2  0
 19 14  1  0
 16 15  1  0
 17 16  2  0
 18 17  1  0
 19 18  2  0
 20 19  1  0
A    1
N1
A    2
S1
A    3
O1
A    4
O2
A    5
C1
A    6
C2
A    7
C3
A    8
C4
A    9
C5
A   10
C6
A   11
N2
A   12
C7
A   13
O3
A   14
C8
A   15
C9
A   16
C10
A   17
C11
A   18
C12
A   19
C13
A   20
S2
M  END
>  <Id>  (56) 
2HD6_BOS_A_266

>  <ChainId>  (56) 
A

>  <AsymId>  (56) 
E

>  <SeqNum>  (56) 
266

>  <Name>  (56) 
N-[4-(AMINOSULFONYL)PHENYL]-2-MERCAPTOBENZAMIDE

>  <SystematicName>  (56) 
N-(4-sulfamoylphenyl)-2-sulfanyl-benzamide

>  <Synonyms>  (56) 


>  <Type>  (56) 
NON-POLYMER

>  <Formula>  (56) 
C13 H12 N2 O3 S2

>  <ObservedFormula>  (56) 
S2 C13 N2 O3

>  <MolecularWeight>  (56) 
308.376

>  <ModifiedDate>  (56) 
2011-06-04

>  <Parent>  (56) 


>  <OneLetterCode>  (56) 


>  <SubcomponentList>  (56) 


>  <AmbiguousFlag>  (56) 
N

>  <InsertionCode>  (56) 


>  <InstanceId>  (56) 
2HD6_BOS_A_266

>  <ChemCompId>  (56) 
BOS

>  <PdbId>  (56) 
2HD6

>  <ResidueNumber>  (56) 
266

>  <InChI>  (56) 
InChI=1S/C13H12N2O3S2/c14-20(17,18)10-7-5-9(6-8-10)15-13(16)11-3-1-2-4-12(11)19/h1-8,19H,(H,15,16)(H2,14,17,18)

>  <InChIKey>  (56) 
MRLVIVXGUGNENL-UHFFFAOYSA-N

>  <SMILES>  (56) 
c1ccc(c(c1)C(=O)Nc2ccc(cc2)S(=O)(=O)N)S

>  <MissingHeavyAtoms>  (56) 
0

>  <Model>  (56) 
1

>  <AltIds>  (56) 


>  <pKI>  (56) 
7.8

>  <ChemblID>  (56) 
CHEMBL386049

>  <standardized_canonical_smiles>  (56) 
NS(=O)(=O)c1ccc(NC(=O)c2ccccc2S)cc1

$$$$
1ZGF_TRU_A_300
     RDKit          3D

 20 21  0  0  0  0  0  0  0  0999 V2000
   16.9850    4.3720   12.3180 S   0  0  0  0  0  0  0  0  0  0  0  0
   15.8520    4.0470   11.4660 O   0  0  0  0  0  0  0  0  0  0  0  0
   18.1060    3.4780   12.4900 O   0  0  0  0  0  0  0  0  0  0  0  0
   17.5240    5.7290   11.9440 N   0  0  0  0  0  0  0  0  0  0  0  0
   16.6790    6.8840   12.0550 C   0  0  0  0  0  0  0  0  0  0  0  0
   17.1350    8.0810   11.2080 C   0  0  0  0  0  0  0  0  0  0  0  0
   17.4700    7.5150    9.5580 Cl  0  0  0  0  0  0  0  0  0  0  0  0
   15.8020    9.2570   11.1220 Cl  0  0  0  0  0  0  0  0  0  0  0  0
   16.3000    7.1880   13.4330 N   0  0  0  0  0  0  0  0  0  0  0  0
   15.9970    6.0910   14.2650 C   0  0  0  0  0  0  0  0  0  0  0  0
   15.4260    6.3570   15.4940 C   0  0  0  0  0  0  0  0  0  0  0  0
   15.1280    5.2670   16.3140 C   0  0  0  0  0  0  0  0  0  0  0  0
   14.4140    5.6570   17.8440 Cl  0  0  0  0  0  0  0  0  0  0  0  0
   15.3810    3.9520   15.9420 C   0  0  0  0  0  0  0  0  0  0  0  0
   14.9730    2.6270   17.0400 S   0  0  0  0  0  0  0  0  0  0  0  0
   15.5450    1.3910   16.4500 N   0  0  0  0  0  0  0  0  0  0  0  0
   15.6860    2.8550   18.2940 O   0  0  0  0  0  0  0  0  0  0  0  0
   13.5360    2.5810   17.0120 O   0  0  0  0  0  0  0  0  0  0  0  0
   15.9550    3.6910   14.7060 C   0  0  0  0  0  0  0  0  0  0  0  0
   16.2560    4.7690   13.8810 C   0  0  0  0  0  0  0  0  0  0  0  0
  2  1  2  0
  3  1  2  0
  4  1  1  0
 20  1  1  0
  5  4  1  0
  6  5  1  0
  9  5  1  0
  7  6  1  0
  8  6  1  0
 10  9  1  0
 11 10  1  0
 20 10  2  0
 12 11  2  0
 13 12  1  0
 14 12  1  0
 15 14  1  0
 19 14  2  0
 16 15  1  0
 17 15  2  0
 18 15  2  0
 20 19  1  0
A    1
S1
A    2
O17
A    3
O16
A    4
N10
A    5
C9
A    6
C18
A    7
CL20
A    8
CL19
A    9
N8
A   10
C3
A   11
C4
A   12
C5
A   13
CL11
A   14
C6
A   15
S12
A   16
N15
A   17
O14
A   18
O13
A   19
C7
A   20
C2
M  END
>  <Id>  (57) 
1ZGF_TRU_A_300

>  <ChainId>  (57) 
A

>  <AsymId>  (57) 
D

>  <SeqNum>  (57) 
300

>  <Name>  (57) 
6-CHLORO-3-(DICHLOROMETHYL)-3,4-DIHYDRO-2H-1,2,4-BENZOTHIADIAZINE-7-SULFONAMIDE 1,1-DIOXIDE

>  <SystematicName>  (57) 
(3R)-6-chloro-3-(dichloromethyl)-1,1-dioxo-3,4-dihydro-2H-benzo[e][1,2,4]thiadiazine-7-sulfonamide

>  <Synonyms>  (57) 


>  <Type>  (57) 
NON-POLYMER

>  <Formula>  (57) 
C8 H8 Cl3 N3 O4 S2

>  <ObservedFormula>  (57) 
S2 C8 Cl3 N3 O4

>  <MolecularWeight>  (57) 
380.656

>  <ModifiedDate>  (57) 
2011-06-04

>  <Parent>  (57) 


>  <OneLetterCode>  (57) 


>  <SubcomponentList>  (57) 


>  <AmbiguousFlag>  (57) 
N

>  <InsertionCode>  (57) 


>  <InstanceId>  (57) 
1ZGF_TRU_A_300

>  <ChemCompId>  (57) 
TRU

>  <PdbId>  (57) 
1ZGF

>  <ResidueNumber>  (57) 
300

>  <InChI>  (57) 
InChI=1S/C8H8Cl3N3O4S2/c9-3-1-4-6(2-5(3)19(12,15)16)20(17,18)14-8(13-4)7(10)11/h1-2,7-8,13-14H,(H2,12,15,16)/t8-/m1/s1

>  <InChIKey>  (57) 
LMJSLTNSBFUCMU-MRVPVSSYSA-N

>  <SMILES>  (57) 
c1c2c(cc(c1Cl)S(=O)(=O)N)S(=O)(=O)N[C@@H](N2)C(Cl)Cl

>  <MissingHeavyAtoms>  (57) 
0

>  <Model>  (57) 
1

>  <AltIds>  (57) 


>  <pKI>  (57) 
7.04

>  <ChemblID>  (57) 
CHEMBL1054

>  <standardized_canonical_smiles>  (57) 
NS(=O)(=O)c1cc2c(cc1Cl)NC(C(Cl)Cl)NS2(=O)=O

$$$$
2Q1Q_OSP_A_300
     RDKit          3D

 18 19  0  0  0  0  0  0  0  0999 V2000
   -5.2520    4.5090   11.2130 O   0  0  0  0  0  0  0  0  0  0  0  0
   -4.0070    5.1270   11.6080 S   0  0  0  0  0  0  0  0  0  0  0  0
   -2.9710    4.2460   11.1220 O   0  0  0  0  0  0  0  0  0  0  0  0
   -3.7850    6.6210   10.9110 C   0  0  0  0  0  0  0  0  0  0  0  0
   -2.5260    7.3020   11.4600 C   0  0  0  0  0  0  0  0  0  0  0  0
   -1.9850    6.6550   12.7350 C   0  0  0  0  0  0  0  0  0  0  0  0
   -3.0830    6.3190   13.7370 C   0  0  0  0  0  0  0  0  0  0  0  0
   -3.8530    5.2320   13.1420 N   0  0  0  0  0  0  0  0  0  0  0  0
   -4.3780    4.2460   14.0100 C   0  0  0  0  0  0  0  0  0  0  0  0
   -3.5850    3.1360   14.3000 C   0  0  0  0  0  0  0  0  0  0  0  0
   -4.0580    2.1420   15.1650 C   0  0  0  0  0  0  0  0  0  0  0  0
   -5.6540    4.3450   14.5730 C   0  0  0  0  0  0  0  0  0  0  0  0
   -6.1280    3.3490   15.4340 C   0  0  0  0  0  0  0  0  0  0  0  0
   -5.3370    2.2300   15.7390 C   0  0  0  0  0  0  0  0  0  0  0  0
   -5.8650    1.0470   16.7210 S   0  0  0  0  0  0  0  0  0  0  0  0
   -7.3000    1.0520   16.7650 O   0  0  0  0  0  0  0  0  0  0  0  0
   -5.3130    1.2480   18.0320 O   0  0  0  0  0  0  0  0  0  0  0  0
   -5.3580   -0.3420   16.1270 N   0  0  0  0  0  0  0  0  0  0  0  0
  2  1  2  0
  3  2  2  0
  4  2  1  0
  8  2  1  0
  5  4  1  0
  6  5  1  0
  7  6  1  0
  8  7  1  0
  9  8  1  0
 10  9  2  0
 12  9  1  0
 11 10  1  0
 14 11  2  0
 13 12  2  0
 14 13  1  0
 15 14  1  0
 16 15  2  0
 17 15  2  0
 18 15  1  0
A    1
O3
A    2
S2
A    3
O4
A    4
C7
A    5
C8
A    6
C9
A    7
C10
A    8
N2
A    9
C4
A   10
C3
A   11
C2
A   12
C5
A   13
C6
A   14
C1
A   15
S1
A   16
O1
A   17
O2
A   18
N1
M  END
>  <Id>  (58) 
2Q1Q_OSP_A_300

>  <ChainId>  (58) 
A

>  <AsymId>  (58) 
D

>  <SeqNum>  (58) 
300

>  <Name>  (58) 
SULTHIAME

>  <SystematicName>  (58) 
4-(1,1-dioxo-1,2-thiazinan-2-yl)benzenesulfonamide

>  <Synonyms>  (58) 
4-(1,1-DIOXIDO-1,2-THIAZINAN-2-YL)BENZENESULFONAMIDE

>  <Type>  (58) 
NON-POLYMER

>  <Formula>  (58) 
C10 H14 N2 O4 S2

>  <ObservedFormula>  (58) 
S2 C10 N2 O4

>  <MolecularWeight>  (58) 
290.359

>  <ModifiedDate>  (58) 
2011-06-04

>  <Parent>  (58) 


>  <OneLetterCode>  (58) 


>  <SubcomponentList>  (58) 


>  <AmbiguousFlag>  (58) 


>  <InsertionCode>  (58) 


>  <InstanceId>  (58) 
2Q1Q_OSP_A_300

>  <ChemCompId>  (58) 
OSP

>  <PdbId>  (58) 
2Q1Q

>  <ResidueNumber>  (58) 
300

>  <InChI>  (58) 
InChI=1S/C10H14N2O4S2/c11-18(15,16)10-5-3-9(4-6-10)12-7-1-2-8-17(12,13)14/h3-6H,1-2,7-8H2,(H2,11,15,16)

>  <InChIKey>  (58) 
HMHVCUVYZFYAJI-UHFFFAOYSA-N

>  <SMILES>  (58) 
c1cc(ccc1N2CCCCS2(=O)=O)S(=O)(=O)N

>  <MissingHeavyAtoms>  (58) 
0

>  <Model>  (58) 
1

>  <AltIds>  (58) 


>  <pKI>  (58) 
8.05

>  <ChemblID>  (58) 
CHEMBL328560

>  <standardized_canonical_smiles>  (58) 
NS(=O)(=O)c1ccc(N2CCCCS2(=O)=O)cc1

$$$$
3B4F_TUO_A_300
     RDKit          3D

 23 25  0  0  0  0  0  0  0  0999 V2000
   -2.4140    1.6580   11.2490 C   0  0  0  0  0  0  0  0  0  0  0  0
   -1.9940    0.4340   10.7000 C   0  0  0  0  0  0  0  0  0  0  0  0
   -2.8160   -0.6950   10.7670 C   0  0  0  0  0  0  0  0  0  0  0  0
   -4.0750   -0.6110   11.3640 C   0  0  0  0  0  0  0  0  0  0  0  0
   -4.4930    0.6050   11.8950 C   0  0  0  0  0  0  0  0  0  0  0  0
   -3.6840    1.7580   11.8330 C   0  0  0  0  0  0  0  0  0  0  0  0
   -4.1570    2.9510   12.4100 C   0  0  0  0  0  0  0  0  0  0  0  0
   -4.7460    2.9690   13.6630 C   0  0  0  0  0  0  0  0  0  0  0  0
   -5.0200    1.9580   14.5960 C   0  0  0  0  0  0  0  0  0  0  0  0
   -5.6280    2.3050   15.7980 C   0  0  0  0  0  0  0  0  0  0  0  0
   -6.1020    1.2520   17.1160 S   0  0  0  0  0  0  0  0  0  0  0  0
   -5.2090    0.8740   18.2180 O   0  0  0  0  0  0  0  0  0  0  0  0
   -7.5510    1.0130   17.0290 O   0  0  0  0  0  0  0  0  0  0  0  0
   -5.6520   -0.1380   16.4070 N   0  0  0  0  0  0  0  0  0  0  0  0
   -5.9790    3.6350   16.0300 C   0  0  0  0  0  0  0  0  0  0  0  0
   -5.7020    4.6350   15.1040 C   0  0  0  0  0  0  0  0  0  0  0  0
   -5.0820    4.3000   13.9150 C   0  0  0  0  0  0  0  0  0  0  0  0
   -4.7130    5.0600   12.8800 N   0  0  0  0  0  0  0  0  0  0  0  0
   -4.1610    4.2810   11.9520 C   0  0  0  0  0  0  0  0  0  0  0  0
   -3.6340    4.9130   10.6450 C   0  0  0  0  0  0  0  0  0  0  0  0
   -3.1760    6.0570   10.6680 O   0  0  0  0  0  0  0  0  0  0  0  0
   -3.7040    4.2100    9.5330 N   0  0  0  0  0  0  0  0  0  0  0  0
   -4.2070    2.9650    9.4790 N   0  0  0  0  0  0  0  0  0  0  0  0
  2  1  2  0
  6  1  1  0
  3  2  1  0
  4  3  2  0
  5  4  1  0
  6  5  2  0
  7  6  1  0
  8  7  1  0
 19  7  2  0
  9  8  2  0
 17  8  1  0
 10  9  1  0
 11 10  1  0
 15 10  2  0
 12 11  2  0
 13 11  2  0
 14 11  1  0
 16 15  1  0
 17 16  2  0
 18 17  1  0
 19 18  1  0
 20 19  1  0
 21 20  2  0
 22 20  1  0
 23 22  1  0
A    1
CAE
A    2
CAA
A    3
CAB
A    4
CAC
A    5
CAG
A    6
CAF
A    7
CAN
A    8
CAM
A    9
CAL
A   10
CAK
A   11
SAJ
A   12
OAS
A   13
OAD
A   14
NAI
A   15
CAT
A   16
CAU
A   17
CAV
A   18
NAW
A   19
CAO
A   20
CAP
A   21
OAH
A   22
NAQ
A   23
NAR
M  END
>  <Id>  (59) 
3B4F_TUO_A_300

>  <ChainId>  (59) 
A

>  <AsymId>  (59) 
D

>  <SeqNum>  (59) 
300

>  <Name>  (59) 
2-(hydrazinocarbonyl)-3-phenyl-1H-indole-5-sulfonamide

>  <SystematicName>  (59) 
2-(aminocarbamoyl)-3-phenyl-1H-indole-5-sulfonamide

>  <Synonyms>  (59) 


>  <Type>  (59) 
NON-POLYMER

>  <Formula>  (59) 
C15 H14 N4 O3 S

>  <ObservedFormula>  (59) 
C15 S N4 O3

>  <MolecularWeight>  (59) 
330.362

>  <ModifiedDate>  (59) 
2011-06-04

>  <Parent>  (59) 


>  <OneLetterCode>  (59) 


>  <SubcomponentList>  (59) 


>  <AmbiguousFlag>  (59) 
N

>  <InsertionCode>  (59) 


>  <InstanceId>  (59) 
3B4F_TUO_A_300

>  <ChemCompId>  (59) 
TUO

>  <PdbId>  (59) 
3B4F

>  <ResidueNumber>  (59) 
300

>  <InChI>  (59) 
InChI=1S/C15H14N4O3S/c16-19-15(20)14-13(9-4-2-1-3-5-9)11-8-10(23(17,21)22)6-7-12(11)18-14/h1-8,18H,16H2,(H,19,20)(H2,17,21,22)

>  <InChIKey>  (59) 
PPDLAUCFAOODER-UHFFFAOYSA-N

>  <SMILES>  (59) 
c1ccc(cc1)c2c3cc(ccc3[nH]c2C(=O)NN)S(=O)(=O)N

>  <MissingHeavyAtoms>  (59) 
0

>  <Model>  (59) 
1

>  <AltIds>  (59) 


>  <pKI>  (59) 
8.14

>  <ChemblID>  (59) 
CHEMBL262628

>  <standardized_canonical_smiles>  (59) 
NNC(=O)c1[nH]c2ccc(S(N)(=O)=O)cc2c1-c1ccccc1

$$$$
2Q38_LSA_A_504
     RDKit          3D

 12 13  0  0  0  0  0  0  0  0999 V2000
   28.7260   -4.4870    5.9220 O   0  0  0  0  0  0  0  0  0  0  0  0
   26.3310   -4.2510    6.7970 N   0  0  0  0  0  0  0  0  0  0  0  0
   24.8650   -4.7330    8.3390 O   0  0  0  0  0  0  0  0  0  0  0  0
   26.1180   -6.5120    7.3350 C   0  0  0  0  0  0  0  0  0  0  0  0
   27.0830   -6.5520    6.3380 C   0  0  0  0  0  0  0  0  0  0  0  0
   26.2250   -8.8830    7.5820 C   0  0  0  0  0  0  0  0  0  0  0  0
   27.2140   -8.9270    6.5900 C   0  0  0  0  0  0  0  0  0  0  0  0
   27.6490   -7.7630    5.9450 C   0  0  0  0  0  0  0  0  0  0  0  0
   25.7060   -5.0780    7.5360 C   0  0  0  0  0  0  0  0  0  0  0  0
   25.6870   -7.6600    8.0000 C   0  0  0  0  0  0  0  0  0  0  0  0
   26.7810   -4.8420    4.3570 O   0  0  0  0  0  0  0  0  0  0  0  0
   27.3700   -4.9330    5.6910 S   0  0  0  0  0  0  0  0  0  0  0  0
  9  2  1  0
  7  8  1  0
  8  5  2  0
  4 10  2  0
 12 11  2  0
 12  2  1  0
  5 12  1  0
 12  1  2  0
  5  4  1  0
  9  3  2  0
  6 10  1  0
  7  6  2  0
  9  4  1  0
A    1
O12
A    2
N9
A    3
O8
A    4
C1
A    5
C6
A    6
C3
A    7
C4
A    8
C5
A    9
C7
A   10
C2
A   11
O11
A   12
S10
M  END
>  <InstanceId>  (60) 
2Q38_LSA_A_504

>  <ChemCompId>  (60) 
LSA

>  <PdbId>  (60) 
2Q38

>  <ChainId>  (60) 
A

>  <ResidueNumber>  (60) 
504

>  <InsertionCode>  (60) 


>  <Model>  (60) 
1

>  <AltIds>  (60) 


>  <MissingHeavyAtoms>  (60) 
0

>  <ObservedFormula>  (60) 
C7 N O3 S

>  <AsymId>  (60) 
E

>  <SeqNum>  (60) 
504

>  <Name>  (60) 
1,2-BENZISOTHIAZOL-3(2H)-ONE 1,1-DIOXIDE

>  <SystematicName>  (60) 
1,1-dioxo-1,2-benzothiazol-3-one

>  <Synonyms>  (60) 
SACCHARIN

>  <Type>  (60) 
NON-POLYMER

>  <Formula>  (60) 
C7 H5 N O3 S

>  <MolecularWeight>  (60) 
183.184

>  <ModifiedDate>  (60) 
2011-06-04

>  <Parent>  (60) 


>  <OneLetterCode>  (60) 


>  <SubcomponentList>  (60) 


>  <AmbiguousFlag>  (60) 


>  <InChI>  (60) 
null

>  <InChIKey>  (60) 
null

>  <SMILES>  (60) 
c1ccc2c(c1)C(=O)NS2(=O)=O

>  <pKI>  (60) 
5.22

>  <ChemblID>  (60) 
CHEMBL310671

>  <standardized_canonical_smiles>  (60) 
O=C1NS(=O)(=O)c2ccccc21

$$$$
4RIV_LSA_A_303
     RDKit          3D

 12 13  0  0  0  0  0  0  0  0999 V2000
   10.2460  -10.9320   76.3400 C   0  0  0  0  0  0  0  0  0  0  0  0
   10.6580   -9.8130   75.6200 C   0  0  0  0  0  0  0  0  0  0  0  0
   10.1640   -8.5820   76.0090 C   0  0  0  0  0  0  0  0  0  0  0  0
    8.8900   -6.9980   77.3120 C   0  0  0  0  0  0  0  0  0  0  0  0
    9.3670  -10.8170   77.4190 C   0  0  0  0  0  0  0  0  0  0  0  0
   10.4490   -7.0010   75.3590 S   0  0  0  0  0  0  0  0  0  0  0  0
    9.6200   -6.1420   76.4050 N   0  0  0  0  0  0  0  0  0  0  0  0
    7.9790   -6.5580   78.2360 O   0  0  0  0  0  0  0  0  0  0  0  0
    9.2860   -8.4690   77.0870 C   0  0  0  0  0  0  0  0  0  0  0  0
    8.8710   -9.5750   77.8100 C   0  0  0  0  0  0  0  0  0  0  0  0
   11.8740   -6.6550   75.4180 O   0  0  0  0  0  0  0  0  0  0  0  0
    9.9050   -6.8710   74.0020 O   0  0  0  0  0  0  0  0  0  0  0  0
  2  1  2  0
  5  1  1  0
  3  2  1  0
  6  3  1  0
  9  3  2  0
  7  4  1  0
  8  4  2  0
  9  4  1  0
 10  5  2  0
  7  6  1  0
 11  6  2  0
 12  6  2  0
 10  9  1  0
A    1
C4
A    2
C5
A    3
C6
A    4
C7
A    5
C3
A    6
S10
A    7
N9
A    8
O8
A    9
C1
A   10
C2
A   11
O12
A   12
O11
M  END
>  <Id>  (61) 
4RIV_LSA_A_303

>  <ChainId>  (61) 
A

>  <AsymId>  (61) 
D

>  <SeqNum>  (61) 
303

>  <Name>  (61) 
1,2-BENZISOTHIAZOL-3(2H)-ONE 1,1-DIOXIDE

>  <SystematicName>  (61) 
1,1-dioxo-1,2-benzothiazol-3-one

>  <Synonyms>  (61) 
SACCHARIN

>  <Type>  (61) 
NON-POLYMER

>  <Formula>  (61) 
C7 H5 N O3 S

>  <ObservedFormula>  (61) 
C7 S N O3

>  <MolecularWeight>  (61) 
183.184

>  <ModifiedDate>  (61) 
2011-06-04

>  <Parent>  (61) 


>  <OneLetterCode>  (61) 


>  <SubcomponentList>  (61) 


>  <AmbiguousFlag>  (61) 


>  <InsertionCode>  (61) 


>  <InstanceId>  (61) 
4RIV_LSA_A_303

>  <ChemCompId>  (61) 
LSA

>  <PdbId>  (61) 
4RIV

>  <ResidueNumber>  (61) 
303

>  <InChI>  (61) 
InChI=1S/C7H5NO3S/c9-7-5-3-1-2-4-6(5)12(10,11)8-7/h1-4H,(H,8,9)

>  <InChIKey>  (61) 
CVHZOJJKTDOEJC-UHFFFAOYSA-N

>  <SMILES>  (61) 
c1ccc2c(c1)C(=O)NS2(=O)=O

>  <MissingHeavyAtoms>  (61) 
0

>  <Model>  (61) 
1

>  <AltIds>  (61) 


>  <pKI>  (61) 
5.22

>  <ChemblID>  (61) 
CHEMBL310671

>  <standardized_canonical_smiles>  (61) 
O=C1NS(=O)(=O)c2ccccc21

$$$$
2Q1B_LSA_A_500
     RDKit          3D

 12 13  0  0  0  0  0  0  0  0999 V2000
   15.4210    6.5880   15.6490 C   0  0  0  0  0  0  0  0  0  0  0  0
   14.9370    5.5540   16.4480 C   0  0  0  0  0  0  0  0  0  0  0  0
   15.2710    4.2550   16.0740 C   0  0  0  0  0  0  0  0  0  0  0  0
   16.2260    2.4540   14.8370 C   0  0  0  0  0  0  0  0  0  0  0  0
   16.2060    6.2850   14.5290 C   0  0  0  0  0  0  0  0  0  0  0  0
   14.7960    2.7790   16.9140 S   0  0  0  0  0  0  0  0  0  0  0  0
   15.6160    1.7050   15.7950 N   0  0  0  0  0  0  0  0  0  0  0  0
   16.8810    1.9960   13.9210 O   0  0  0  0  0  0  0  0  0  0  0  0
   16.0420    3.9480   14.9740 C   0  0  0  0  0  0  0  0  0  0  0  0
   16.5240    4.9780   14.1790 C   0  0  0  0  0  0  0  0  0  0  0  0
   13.3630    2.6780   16.7990 O   0  0  0  0  0  0  0  0  0  0  0  0
   15.4250    2.7840   18.2360 O   0  0  0  0  0  0  0  0  0  0  0  0
  2  1  2  0
  5  1  1  0
  3  2  1  0
  6  3  1  0
  9  3  2  0
  7  4  1  0
  8  4  2  0
  9  4  1  0
 10  5  2  0
  7  6  1  0
 11  6  2  0
 12  6  2  0
 10  9  1  0
A    1
C4
A    2
C5
A    3
C6
A    4
C7
A    5
C3
A    6
S10
A    7
N9
A    8
O8
A    9
C1
A   10
C2
A   11
O12
A   12
O11
M  END
>  <Id>  (62) 
2Q1B_LSA_A_500

>  <ChainId>  (62) 
A

>  <AsymId>  (62) 
F

>  <SeqNum>  (62) 
500

>  <Name>  (62) 
1,2-BENZISOTHIAZOL-3(2H)-ONE 1,1-DIOXIDE

>  <SystematicName>  (62) 
1,1-dioxo-1,2-benzothiazol-3-one

>  <Synonyms>  (62) 
SACCHARIN

>  <Type>  (62) 
NON-POLYMER

>  <Formula>  (62) 
C7 H5 N O3 S

>  <ObservedFormula>  (62) 
C7 S N O3

>  <MolecularWeight>  (62) 
183.184

>  <ModifiedDate>  (62) 
2011-06-04

>  <Parent>  (62) 


>  <OneLetterCode>  (62) 


>  <SubcomponentList>  (62) 


>  <AmbiguousFlag>  (62) 


>  <InsertionCode>  (62) 


>  <InstanceId>  (62) 
2Q1B_LSA_A_500

>  <ChemCompId>  (62) 
LSA

>  <PdbId>  (62) 
2Q1B

>  <ResidueNumber>  (62) 
500

>  <InChI>  (62) 
InChI=1S/C7H5NO3S/c9-7-5-3-1-2-4-6(5)12(10,11)8-7/h1-4H,(H,8,9)

>  <InChIKey>  (62) 
CVHZOJJKTDOEJC-UHFFFAOYSA-N

>  <SMILES>  (62) 
c1ccc2c(c1)C(=O)NS2(=O)=O

>  <MissingHeavyAtoms>  (62) 
0

>  <Model>  (62) 
1

>  <AltIds>  (62) 


>  <pKI>  (62) 
5.22

>  <ChemblID>  (62) 
CHEMBL310671

>  <standardized_canonical_smiles>  (62) 
O=C1NS(=O)(=O)c2ccccc21

$$$$
1Z9Y_FUN_A_500
     RDKit          3D

 21 22  0  0  0  0  0  0  0  0999 V2000
   15.6380    1.4270   16.1840 N   0  0  0  0  0  0  0  0  0  0  0  0
   15.1370    2.6790   16.7840 S   0  0  0  0  0  0  0  0  0  0  0  0
   13.6590    2.6160   16.7330 O   0  0  0  0  0  0  0  0  0  0  0  0
   15.7130    2.9170   18.0870 O   0  0  0  0  0  0  0  0  0  0  0  0
   15.6100    3.9730   15.6750 C   0  0  0  0  0  0  0  0  0  0  0  0
   15.2930    5.3200   15.8850 C   0  0  0  0  0  0  0  0  0  0  0  0
   14.4520    5.8080   17.3370 Cl  0  0  0  0  0  0  0  0  0  0  0  0
   15.6370    6.3520   15.0010 C   0  0  0  0  0  0  0  0  0  0  0  0
   16.4040    6.0270   13.8880 C   0  0  0  0  0  0  0  0  0  0  0  0
   16.7790    6.9930   12.9360 N   0  0  0  0  0  0  0  0  0  0  0  0
   16.4230    8.4030   13.1460 C   0  0  0  0  0  0  0  0  0  0  0  0
   17.4210    9.0220   14.0850 C   0  0  0  0  0  0  0  0  0  0  0  0
   18.6220    9.4820   13.7380 C   0  0  0  0  0  0  0  0  0  0  0  0
   19.1450    9.9670   15.0190 C   0  0  0  0  0  0  0  0  0  0  0  0
   18.1450    9.7210   15.8700 C   0  0  0  0  0  0  0  0  0  0  0  0
   17.0770    9.0800   15.3780 O   0  0  0  0  0  0  0  0  0  0  0  0
   16.6950    4.6740   13.6520 C   0  0  0  0  0  0  0  0  0  0  0  0
   16.3160    3.6480   14.5140 C   0  0  0  0  0  0  0  0  0  0  0  0
   17.4990    4.2320   12.4480 C   0  0  0  0  0  0  0  0  0  0  0  0
   17.8720    5.0500   11.6410 O   0  0  0  0  0  0  0  0  0  0  0  0
   17.7760    2.9490   12.3240 O   0  0  0  0  0  0  0  0  0  0  0  0
  2  1  1  0
  3  2  2  0
  4  2  2  0
  5  2  1  0
  6  5  2  0
 18  5  1  0
  7  6  1  0
  8  6  1  0
  9  8  2  0
 10  9  1  0
 17  9  1  0
 11 10  1  0
 12 11  1  0
 13 12  2  0
 16 12  1  0
 14 13  1  0
 15 14  2  0
 16 15  1  0
 18 17  2  0
 19 17  1  0
 20 19  1  0
 21 19  2  0
A    1
N1
A    2
S1
A    3
O1
A    4
O2
A    5
C1
A    6
C2
A    7
CL1
A    8
C3
A    9
C4
A   10
N2
A   11
C5
A   12
C6
A   13
C7
A   14
C8
A   15
C9
A   16
O3
A   17
C10
A   18
C11
A   19
C12
A   20
O4
A   21
O5
M  END
>  <Id>  (63) 
1Z9Y_FUN_A_500

>  <ChainId>  (63) 
A

>  <AsymId>  (63) 
D

>  <SeqNum>  (63) 
500

>  <Name>  (63) 
5-(AMINOSULFONYL)-4-CHLORO-2-[(2-FURYLMETHYL)AMINO]BENZOIC ACID

>  <SystematicName>  (63) 
4-chloro-2-(furan-2-ylmethylamino)-5-sulfamoyl-benzoic acid

>  <Synonyms>  (63) 
Furosemide

>  <Type>  (63) 
NON-POLYMER

>  <Formula>  (63) 
C12 H11 Cl N2 O5 S

>  <ObservedFormula>  (63) 
S C12 Cl N2 O5

>  <MolecularWeight>  (63) 
330.744

>  <ModifiedDate>  (63) 
2011-06-04

>  <Parent>  (63) 


>  <OneLetterCode>  (63) 


>  <SubcomponentList>  (63) 


>  <AmbiguousFlag>  (63) 
N

>  <InsertionCode>  (63) 


>  <InstanceId>  (63) 
1Z9Y_FUN_A_500

>  <ChemCompId>  (63) 
FUN

>  <PdbId>  (63) 
1Z9Y

>  <ResidueNumber>  (63) 
500

>  <InChI>  (63) 
InChI=1S/C12H11ClN2O5S/c13-9-5-10(15-6-7-2-1-3-20-7)8(12(16)17)4-11(9)21(14,18)19/h1-5,15H,6H2,(H,16,17)(H2,14,18,19)

>  <InChIKey>  (63) 
ZZUFCTLCJUWOSV-UHFFFAOYSA-N

>  <SMILES>  (63) 
c1cc(oc1)CNc2cc(c(cc2C(=O)O)S(=O)(=O)N)Cl

>  <MissingHeavyAtoms>  (63) 
0

>  <Model>  (63) 
1

>  <AltIds>  (63) 


>  <pKI>  (63) 
7.19

>  <ChemblID>  (63) 
CHEMBL35

>  <standardized_canonical_smiles>  (63) 
NS(=O)(=O)c1cc(C(=O)O)c(NCc2ccco2)cc1Cl

$$$$
3BL1_BL1_A_300
     RDKit          3D

 24 26  0  0  0  0  0  0  0  0999 V2000
   -7.4680    0.9160   16.9850 O   0  0  0  0  0  0  0  0  0  0  0  0
   -6.0510    1.1250   16.9110 S   0  0  0  0  0  0  0  0  0  0  0  0
   -5.4540   -0.0630   16.3530 N   0  0  0  0  0  0  0  0  0  0  0  0
   -5.5830    1.3070   18.4150 O   0  0  0  0  0  0  0  0  0  0  0  0
   -5.7000    2.3410   15.8520 C   0  0  0  0  0  0  0  0  0  0  0  0
   -5.1880    2.1110   14.5560 C   0  0  0  0  0  0  0  0  0  0  0  0
   -5.9060    3.6720   16.1680 C   0  0  0  0  0  0  0  0  0  0  0  0
   -6.5720    4.0520   17.7680 Cl  0  0  0  0  0  0  0  0  0  0  0  0
   -5.6290    4.7030   15.2590 C   0  0  0  0  0  0  0  0  0  0  0  0
   -5.1040    4.4400   13.9930 C   0  0  0  0  0  0  0  0  0  0  0  0
   -4.8610    3.1260   13.6170 C   0  0  0  0  0  0  0  0  0  0  0  0
   -4.3490    2.7160   12.2300 C   0  0  0  0  0  0  0  0  0  0  0  0
   -4.5670    1.5470   11.9120 O   0  0  0  0  0  0  0  0  0  0  0  0
   -3.7590    3.3710   11.2130 N   0  0  0  0  0  0  0  0  0  0  0  0
   -3.2420    4.6440   10.8640 N   0  0  0  0  0  0  0  0  0  0  0  0
   -2.0030    4.7160   10.0830 C   0  0  0  0  0  0  0  0  0  0  0  0
   -2.1770    4.0750    8.7110 C   0  0  0  0  0  0  0  0  0  0  0  0
   -3.7830    5.9120   11.1120 C   0  0  0  0  0  0  0  0  0  0  0  0
   -2.9520    6.8640   10.5830 C   0  0  0  0  0  0  0  0  0  0  0  0
   -1.7470    6.2290    9.9230 C   0  0  0  0  0  0  0  0  0  0  0  0
   -4.9710    6.2670   11.7600 C   0  0  0  0  0  0  0  0  0  0  0  0
   -5.2920    7.6300   11.8680 C   0  0  0  0  0  0  0  0  0  0  0  0
   -4.4250    8.5990   11.3250 C   0  0  0  0  0  0  0  0  0  0  0  0
   -3.2340    8.2310   10.6730 C   0  0  0  0  0  0  0  0  0  0  0  0
  2  1  2  0
  3  2  1  0
  4  2  2  0
  5  2  1  0
  6  5  2  0
  7  5  1  0
 11  6  1  0
  8  7  1  0
  9  7  2  0
 10  9  1  0
 11 10  2  0
 12 11  1  0
 13 12  2  0
 14 12  1  0
 15 14  1  0
 16 15  1  0
 18 15  1  0
 17 16  1  0
 20 16  1  0
 19 18  2  0
 21 18  1  0
 20 19  1  0
 24 19  1  0
 22 21  2  0
 23 22  1  0
 24 23  2  0
A    1
OAW
A    2
SAX
A    3
NAS
A    4
OAV
A    5
CAO
A    6
CAM
A    7
CAJ
A    8
CLAQ
A    9
CAC
A   10
CAN
A   11
CAL
A   12
CAK
A   13
OAU
A   14
NAR
A   15
NAT
A   16
CAI
A   17
CAP
A   18
CAA
A   19
CAB
A   20
CAF
A   21
CAD
A   22
CAH
A   23
CAG
A   24
CAE
M  END
>  <Id>  (64) 
3BL1_BL1_A_300

>  <ChainId>  (64) 
A

>  <AsymId>  (64) 
D

>  <SeqNum>  (64) 
300

>  <Name>  (64) 
4-chloro-N-[(2S)-2-methyl-2,3-dihydro-1H-indol-1-yl]-3-sulfamoylbenzamide

>  <SystematicName>  (64) 
4-chloro-N-[(2S)-2-methyl-2,3-dihydroindol-1-yl]-3-sulfamoyl-benzamide

>  <Synonyms>  (64) 
Indapamide

>  <Type>  (64) 
NON-POLYMER

>  <Formula>  (64) 
C16 H16 Cl N3 O3 S

>  <ObservedFormula>  (64) 
S C16 Cl N3 O3

>  <MolecularWeight>  (64) 
365.835

>  <ModifiedDate>  (64) 
2011-06-04

>  <Parent>  (64) 


>  <OneLetterCode>  (64) 


>  <SubcomponentList>  (64) 


>  <AmbiguousFlag>  (64) 
N

>  <InsertionCode>  (64) 


>  <InstanceId>  (64) 
3BL1_BL1_A_300

>  <ChemCompId>  (64) 
BL1

>  <PdbId>  (64) 
3BL1

>  <ResidueNumber>  (64) 
300

>  <InChI>  (64) 
InChI=1S/C16H16ClN3O3S/c1-10-8-11-4-2-3-5-14(11)20(10)19-16(21)12-6-7-13(17)15(9-12)24(18,22)23/h2-7,9-10H,8H2,1H3,(H,19,21)(H2,18,22,23)/t10-/m0/s1

>  <InChIKey>  (64) 
NDDAHWYSQHTHNT-JTQLQIEISA-N

>  <SMILES>  (64) 
C[C@H]1Cc2ccccc2N1NC(=O)c3ccc(c(c3)S(=O)(=O)N)Cl

>  <MissingHeavyAtoms>  (64) 
0

>  <Model>  (64) 
1

>  <AltIds>  (64) 


>  <pKI>  (64) 
5.6

>  <ChemblID>  (64) 
CHEMBL406

>  <standardized_canonical_smiles>  (64) 
CC1Cc2ccccc2N1NC(=O)c1ccc(Cl)c(S(N)(=O)=O)c1

$$$$
3F4X_KLT_A_300
     RDKit          3D

 22 24  0  0  0  0  0  0  0  0999 V2000
   -5.3770    1.2270   18.1710 O   0  0  0  0  0  0  0  0  0  0  0  0
   -5.8570    0.9990   16.6590 S   0  0  0  0  0  0  0  0  0  0  0  0
   -7.3460    0.8780   16.6530 O   0  0  0  0  0  0  0  0  0  0  0  0
   -5.2300   -0.2680   16.1110 N   0  0  0  0  0  0  0  0  0  0  0  0
   -5.4270    2.4330   15.6740 C   0  0  0  0  0  0  0  0  0  0  0  0
   -4.6370    2.3300   14.5210 C   0  0  0  0  0  0  0  0  0  0  0  0
   -5.8970    3.6920   16.0590 C   0  0  0  0  0  0  0  0  0  0  0  0
   -6.8690    3.8740   17.4770 Cl  0  0  0  0  0  0  0  0  0  0  0  0
   -5.5910    4.8330   15.3170 C   0  0  0  0  0  0  0  0  0  0  0  0
   -4.8060    4.7270   14.1810 C   0  0  0  0  0  0  0  0  0  0  0  0
   -4.3290    3.4790   13.7730 C   0  0  0  0  0  0  0  0  0  0  0  0
   -3.4490    3.4020   12.5090 C   0  0  0  0  0  0  0  0  0  0  0  0
   -2.6180    2.2380   12.5430 O   0  0  0  0  0  0  0  0  0  0  0  0
   -2.5710    4.6590   12.4000 C   0  0  0  0  0  0  0  0  0  0  0  0
   -1.6230    5.2360   13.2530 C   0  0  0  0  0  0  0  0  0  0  0  0
   -0.9790    6.4150   12.8690 C   0  0  0  0  0  0  0  0  0  0  0  0
   -1.2780    7.0140   11.6440 C   0  0  0  0  0  0  0  0  0  0  0  0
   -2.2260    6.4400   10.7990 C   0  0  0  0  0  0  0  0  0  0  0  0
   -2.8700    5.2600   11.1760 C   0  0  0  0  0  0  0  0  0  0  0  0
   -3.8380    4.4890   10.5390 C   0  0  0  0  0  0  0  0  0  0  0  0
   -4.2990    4.7760    9.4410 O   0  0  0  0  0  0  0  0  0  0  0  0
   -4.2210    3.4250   11.2460 N   0  0  0  0  0  0  0  0  0  0  0  0
  2  1  2  0
  3  2  2  0
  4  2  1  0
  5  2  1  0
  6  5  2  0
  7  5  1  0
 11  6  1  0
  8  7  1  0
  9  7  2  0
 10  9  1  0
 11 10  2  0
 12 11  1  0
 13 12  1  0
 14 12  1  0
 22 12  1  0
 15 14  2  0
 19 14  1  0
 16 15  1  0
 17 16  2  0
 18 17  1  0
 19 18  2  0
 20 19  1  0
 21 20  2  0
 22 20  1  0
A    1
O1
A    2
S1
A    3
O2
A    4
N1
A    5
C1
A    6
C2
A    7
C3
A    8
CL1
A    9
C4
A   10
C5
A   11
C6
A   12
C7
A   13
O8
A   14
C9
A   15
C10
A   16
C11
A   17
C12
A   18
C13
A   19
C14
A   20
C15
A   21
O3
A   22
N2
M  END
>  <Id>  (65) 
3F4X_KLT_A_300

>  <ChainId>  (65) 
A

>  <AsymId>  (65) 
D

>  <SeqNum>  (65) 
300

>  <Name>  (65) 
2-chloro-5-[(1S)-1-hydroxy-3-oxo-2H-isoindol-1-yl]benzenesulfonamide

>  <SystematicName>  (65) 
2-chloro-5-[(1S)-1-hydroxy-3-oxo-2H-isoindol-1-yl]benzenesulfonamide

>  <Synonyms>  (65) 
chlorthalidone

>  <Type>  (65) 
NON-POLYMER

>  <Formula>  (65) 
C14 H11 Cl N2 O4 S

>  <ObservedFormula>  (65) 
S C14 Cl N2 O4

>  <MolecularWeight>  (65) 
338.766

>  <ModifiedDate>  (65) 
2011-06-04

>  <Parent>  (65) 


>  <OneLetterCode>  (65) 


>  <SubcomponentList>  (65) 


>  <AmbiguousFlag>  (65) 
N

>  <InsertionCode>  (65) 


>  <InstanceId>  (65) 
3F4X_KLT_A_300

>  <ChemCompId>  (65) 
KLT

>  <PdbId>  (65) 
3F4X

>  <ResidueNumber>  (65) 
300

>  <InChI>  (65) 
InChI=1S/C14H11ClN2O4S/c15-11-6-5-8(7-12(11)22(16,20)21)14(19)10-4-2-1-3-9(10)13(18)17-14/h1-7,19H,(H,17,18)(H2,16,20,21)/t14-/m0/s1

>  <InChIKey>  (65) 
JIVPVXMEBJLZRO-AWEZNQCLSA-N

>  <SMILES>  (65) 
c1ccc2c(c1)C(=O)N[C@@]2(c3ccc(c(c3)S(=O)(=O)N)Cl)O

>  <MissingHeavyAtoms>  (65) 
0

>  <Model>  (65) 
1

>  <AltIds>  (65) 


>  <pKI>  (65) 
6.86

>  <ChemblID>  (65) 
CHEMBL1055

>  <standardized_canonical_smiles>  (65) 
NS(=O)(=O)c1cc(C2(O)NC(=O)c3ccccc32)ccc1Cl

$$$$
5M78_SAL_A_304
     RDKit          3D

 10 10  0  0  0  0  0  0  0  0999 V2000
   -1.7000    3.3050   85.5200 C   0  0  0  0  0  0  0  0  0  0  0  0
   -2.9750    3.1280   85.7370 O   0  0  0  0  0  0  0  0  0  0  0  0
   -0.8380    2.5220   85.9160 O   0  0  0  0  0  0  0  0  0  0  0  0
   -1.3520    4.5560   84.7770 C   0  0  0  0  0  0  0  0  0  0  0  0
   -2.3730    5.4520   84.3950 C   0  0  0  0  0  0  0  0  0  0  0  0
   -2.0370    6.6330   83.7400 C   0  0  0  0  0  0  0  0  0  0  0  0
   -0.7170    6.9300   83.4650 C   0  0  0  0  0  0  0  0  0  0  0  0
    0.2800    6.0540   83.8280 C   0  0  0  0  0  0  0  0  0  0  0  0
   -0.0300    4.8750   84.4830 C   0  0  0  0  0  0  0  0  0  0  0  0
   -3.6760    5.1960   84.6620 O   0  0  0  0  0  0  0  0  0  0  0  0
  2  1  2  0
  3  1  1  0
  4  1  1  0
  5  4  2  0
  9  4  1  0
  6  5  1  0
 10  5  1  0
  7  6  2  0
  8  7  1  0
  9  8  2  0
A    1
C1'
A    2
O1'
A    3
O2'
A    4
C1
A    5
C2
A    6
C3
A    7
C4
A    8
C5
A    9
C6
A   10
O2
M  END
>  <Id>  (66) 
5M78_SAL_A_304

>  <ChainId>  (66) 
A

>  <AsymId>  (66) 
E

>  <SeqNum>  (66) 
304

>  <Name>  (66) 
2-HYDROXYBENZOIC ACID

>  <SystematicName>  (66) 
2-hydroxybenzoic acid

>  <Synonyms>  (66) 
SALICYLIC ACID

>  <Type>  (66) 
NON-POLYMER

>  <Formula>  (66) 
C7 H6 O3

>  <ObservedFormula>  (66) 
C7 O3

>  <MolecularWeight>  (66) 
138.121

>  <ModifiedDate>  (66) 
2011-06-04

>  <Parent>  (66) 


>  <OneLetterCode>  (66) 


>  <SubcomponentList>  (66) 


>  <AmbiguousFlag>  (66) 
N

>  <InsertionCode>  (66) 


>  <InstanceId>  (66) 
5M78_SAL_A_304

>  <ChemCompId>  (66) 
SAL

>  <PdbId>  (66) 
5M78

>  <ResidueNumber>  (66) 
304

>  <InChI>  (66) 
InChI=1S/C7H6O3/c8-6-4-2-1-3-5(6)7(9)10/h1-4,8H,(H,9,10)

>  <InChIKey>  (66) 
YGSDEFSMJLZEOE-UHFFFAOYSA-N

>  <SMILES>  (66) 
c1ccc(c(c1)C(=O)O)O

>  <MissingHeavyAtoms>  (66) 
0

>  <Model>  (66) 
1

>  <AltIds>  (66) 


>  <pKI>  (66) 
5.15

>  <ChemblID>  (66) 
CHEMBL424

>  <standardized_canonical_smiles>  (66) 
O=C(O)c1ccccc1O

$$$$
4E3H_HQE_A_303
     RDKit          3D

  8  8  0  0  0  0  0  0  0  0999 V2000
   14.6240    4.4170   17.5990 C   0  0  0  0  0  0  0  0  0  0  0  0
   14.8040    3.1160   18.1840 C   0  0  0  0  0  0  0  0  0  0  0  0
   15.3400    2.1050   17.3950 C   0  0  0  0  0  0  0  0  0  0  0  0
   15.4900    0.8050   17.9200 O   0  0  0  0  0  0  0  0  0  0  0  0
   15.6690    2.3990   16.0370 C   0  0  0  0  0  0  0  0  0  0  0  0
   15.5180    3.6700   15.4700 C   0  0  0  0  0  0  0  0  0  0  0  0
   15.0070    4.6970   16.2810 C   0  0  0  0  0  0  0  0  0  0  0  0
   14.8730    6.0060   15.7680 O   0  0  0  0  0  0  0  0  0  0  0  0
  2  1  2  0
  7  1  1  0
  3  2  1  0
  4  3  1  0
  5  3  2  0
  6  5  1  0
  7  6  2  0
  8  7  1  0
A    1
C1
A    2
C2
A    3
C3
A    4
O3
A    5
C4
A    6
C5
A    7
C6
A    8
O6
M  END
>  <Id>  (67) 
4E3H_HQE_A_303

>  <ChainId>  (67) 
A

>  <AsymId>  (67) 
D

>  <SeqNum>  (67) 
303

>  <Name>  (67) 
benzene-1,4-diol

>  <SystematicName>  (67) 
benzene-1,4-diol

>  <Synonyms>  (67) 


>  <Type>  (67) 
NON-POLYMER

>  <Formula>  (67) 
C6 H6 O2

>  <ObservedFormula>  (67) 
C6 O2

>  <MolecularWeight>  (67) 
110.111

>  <ModifiedDate>  (67) 
2012-06-22

>  <Parent>  (67) 


>  <OneLetterCode>  (67) 


>  <SubcomponentList>  (67) 


>  <AmbiguousFlag>  (67) 
N

>  <InsertionCode>  (67) 


>  <InstanceId>  (67) 
4E3H_HQE_A_303

>  <ChemCompId>  (67) 
HQE

>  <PdbId>  (67) 
4E3H

>  <ResidueNumber>  (67) 
303

>  <InChI>  (67) 
InChI=1S/C6H6O2/c7-5-1-2-6(8)4-3-5/h1-4,7-8H

>  <InChIKey>  (67) 
QIGBRXMKCJKVMJ-UHFFFAOYSA-N

>  <SMILES>  (67) 
c1cc(ccc1O)O

>  <MissingHeavyAtoms>  (67) 
0

>  <Model>  (67) 
1

>  <AltIds>  (67) 


>  <pKI>  (67) 
7.05

>  <ChemblID>  (67) 
CHEMBL537

>  <standardized_canonical_smiles>  (67) 
Oc1ccc(O)cc1

$$$$
4E49_RCO_A_306
     RDKit          3D

  8  8  0  0  0  0  0  0  0  0999 V2000
   14.8100  -17.5930   36.0510 C   0  0  0  0  0  0  0  0  0  0  0  0
   14.1090  -16.4040   36.2160 C   0  0  0  0  0  0  0  0  0  0  0  0
   14.1100  -15.7840   37.4600 C   0  0  0  0  0  0  0  0  0  0  0  0
   14.7300  -16.3590   38.5450 C   0  0  0  0  0  0  0  0  0  0  0  0
   15.4730  -17.5660   38.4230 C   0  0  0  0  0  0  0  0  0  0  0  0
   15.4940  -18.2030   37.1520 C   0  0  0  0  0  0  0  0  0  0  0  0
   14.7880  -18.2220   34.8180 O   0  0  0  0  0  0  0  0  0  0  0  0
   13.3800  -14.6420   37.6490 O   0  0  0  0  0  0  0  0  0  0  0  0
  2  1  2  0
  6  1  1  0
  7  1  1  0
  3  2  1  0
  4  3  2  0
  8  3  1  0
  5  4  1  0
  6  5  2  0
A    1
C1
A    2
C2
A    3
C3
A    4
C4
A    5
C5
A    6
C6
A    7
O1
A    8
O3
M  END
>  <Id>  (68) 
4E49_RCO_A_306

>  <ChainId>  (68) 
A

>  <AsymId>  (68) 
G

>  <SeqNum>  (68) 
306

>  <Name>  (68) 
RESORCINOL

>  <SystematicName>  (68) 
benzene-1,3-diol

>  <Synonyms>  (68) 
1,3-BENZENEDIOL; 1,3-DIHYDROXYBENZENE

>  <Type>  (68) 
NON-POLYMER

>  <Formula>  (68) 
C6 H6 O2

>  <ObservedFormula>  (68) 
C6 O2

>  <MolecularWeight>  (68) 
110.111

>  <ModifiedDate>  (68) 
2011-06-04

>  <Parent>  (68) 


>  <OneLetterCode>  (68) 


>  <SubcomponentList>  (68) 


>  <AmbiguousFlag>  (68) 
N

>  <InsertionCode>  (68) 


>  <InstanceId>  (68) 
4E49_RCO_A_306

>  <ChemCompId>  (68) 
RCO

>  <PdbId>  (68) 
4E49

>  <ResidueNumber>  (68) 
306

>  <InChI>  (68) 
InChI=1S/C6H6O2/c7-5-2-1-3-6(8)4-5/h1-4,7-8H

>  <InChIKey>  (68) 
GHMLBKRAJCXXBS-UHFFFAOYSA-N

>  <SMILES>  (68) 
c1cc(cc(c1)O)O

>  <MissingHeavyAtoms>  (68) 
0

>  <Model>  (68) 
1

>  <AltIds>  (68) 


>  <pKI>  (68) 
5.11

>  <ChemblID>  (68) 
CHEMBL24147

>  <standardized_canonical_smiles>  (68) 
Oc1cccc(O)c1

$$$$
2NNO_M28_A_302
     RDKit          3D

 15 15  0  0  0  0  0  0  0  0999 V2000
   11.7910   -1.2510   12.9400 C   0  0  0  0  0  0  0  0  0  0  0  0
   12.3370   -0.3210   12.0570 C   0  0  0  0  0  0  0  0  0  0  0  0
   13.2070   -0.7200   11.0600 C   0  0  0  0  0  0  0  0  0  0  0  0
   13.5610   -2.0870   10.9630 C   0  0  0  0  0  0  0  0  0  0  0  0
   13.0330   -2.9820   11.8840 C   0  0  0  0  0  0  0  0  0  0  0  0
   12.1650   -2.6000   12.9050 C   0  0  0  0  0  0  0  0  0  0  0  0
   10.6600   -0.7680   14.2110 S   0  0  0  0  0  0  0  0  0  0  0  0
    9.8100   -1.8950   14.4620 O   0  0  0  0  0  0  0  0  0  0  0  0
   10.0310    0.4440   13.7320 O   0  0  0  0  0  0  0  0  0  0  0  0
   11.5220   -0.4460   15.6000 N   0  0  0  0  0  0  0  0  0  0  0  0
   14.5120   -2.4810    9.8330 C   0  0  0  0  0  0  0  0  0  0  0  0
   13.8360   -2.0760    8.5340 C   0  0  0  0  0  0  0  0  0  0  0  0
   14.4920   -1.7580    7.2240 C   0  0  0  0  0  0  0  0  0  0  0  0
   14.1980   -0.6670    6.6550 O   0  0  0  0  0  0  0  0  0  0  0  0
   15.2850   -2.5640    6.6700 O   0  0  0  0  0  0  0  0  0  0  0  0
  2  1  2  0
  6  1  1  0
  7  1  1  0
  3  2  1  0
  4  3  2  0
  5  4  1  0
 11  4  1  0
  6  5  2  0
  8  7  2  0
  9  7  2  0
 10  7  1  0
 12 11  1  0
 13 12  1  0
 14 13  2  0
 15 13  1  0
A    1
C1
A    2
C2
A    3
C3
A    4
C4
A    5
C5
A    6
C6
A    7
S
A    8
O1
A    9
O2
A   10
N3
A   11
C7
A   12
C8
A   13
C9
A   14
O4
A   15
O5
M  END
>  <Id>  (69) 
2NNO_M28_A_302

>  <ChainId>  (69) 
A

>  <AsymId>  (69) 
D

>  <SeqNum>  (69) 
302

>  <Name>  (69) 
3-[4-(AMINOSULFONYL)PHENYL]PROPANOIC ACID

>  <SystematicName>  (69) 
3-(4-sulfamoylphenyl)propanoic acid

>  <Synonyms>  (69) 
P-CARBOXYETHYLBENZENESULFONAMIDE

>  <Type>  (69) 
NON-POLYMER

>  <Formula>  (69) 
C9 H11 N O4 S

>  <ObservedFormula>  (69) 
C9 S N O4

>  <MolecularWeight>  (69) 
229.253

>  <ModifiedDate>  (69) 
2011-06-04

>  <Parent>  (69) 


>  <OneLetterCode>  (69) 


>  <SubcomponentList>  (69) 


>  <AmbiguousFlag>  (69) 


>  <InsertionCode>  (69) 


>  <InstanceId>  (69) 
2NNO_M28_A_302

>  <ChemCompId>  (69) 
M28

>  <PdbId>  (69) 
2NNO

>  <ResidueNumber>  (69) 
302

>  <InChI>  (69) 
InChI=1S/C9H11NO4S/c10-15(13,14)8-4-1-7(2-5-8)3-6-9(11)12/h1-2,4-5H,3,6H2,(H,11,12)(H2,10,13,14)

>  <InChIKey>  (69) 
JUEONDBIBADVGD-UHFFFAOYSA-N

>  <SMILES>  (69) 
c1cc(ccc1CCC(=O)O)S(=O)(=O)N

>  <MissingHeavyAtoms>  (69) 
0

>  <Model>  (69) 
1

>  <AltIds>  (69) 


>  <pKI>  (69) 
6.31

>  <ChemblID>  (69) 
CHEMBL451332

>  <standardized_canonical_smiles>  (69) 
NS(=O)(=O)c1ccc(CCC(=O)O)cc1

$$$$
3DD8_2C7_A_300
     RDKit          3D

 24 26  0  0  0  0  0  0  0  0999 V2000
   -1.2860    9.8490   12.4120 C   0  0  0  0  0  0  0  0  0  0  0  0
    0.0250   10.6530   12.3690 C   0  0  0  0  0  0  0  0  0  0  0  0
    0.4180   11.2100   13.7510 C   0  0  0  0  0  0  0  0  0  0  0  0
    0.6120   10.0830   14.7850 C   0  0  0  0  0  0  0  0  0  0  0  0
   -0.7320    9.5540   15.3220 C   0  0  0  0  0  0  0  0  0  0  0  0
   -1.3660    8.4160   14.4930 C   0  0  0  0  0  0  0  0  0  0  0  0
   -1.0740    8.4340   12.9740 C   0  0  0  0  0  0  0  0  0  0  0  0
   -1.9950    7.5080   12.1680 C   0  0  0  0  0  0  0  0  0  0  0  0
   -2.7500    6.3640   12.8850 C   0  0  0  0  0  0  0  0  0  0  0  0
   -4.0600    6.2410   13.1690 C   0  0  0  0  0  0  0  0  0  0  0  0
   -1.9980    4.9250   13.4130 S   0  0  0  0  0  0  0  0  0  0  0  0
   -1.3820    4.2290   12.2230 O   0  0  0  0  0  0  0  0  0  0  0  0
   -1.0200    5.1620   14.5250 O   0  0  0  0  0  0  0  0  0  0  0  0
   -3.4190    4.1590   13.9810 C   0  0  0  0  0  0  0  0  0  0  0  0
   -3.6610    2.9100   14.5680 C   0  0  0  0  0  0  0  0  0  0  0  0
   -4.4500    5.0870   13.7630 C   0  0  0  0  0  0  0  0  0  0  0  0
   -5.7400    4.6980   14.1370 C   0  0  0  0  0  0  0  0  0  0  0  0
   -5.9870    3.4520   14.7130 C   0  0  0  0  0  0  0  0  0  0  0  0
   -4.9560    2.5520   14.9620 C   0  0  0  0  0  0  0  0  0  0  0  0
   -5.1820    1.2980   15.4940 O   0  0  0  0  0  0  0  0  0  0  0  0
   -5.8730    0.9500   16.7490 S   0  0  0  0  0  0  0  0  0  0  0  0
   -5.1280    1.4430   17.9490 O   0  0  0  0  0  0  0  0  0  0  0  0
   -7.2650    1.4680   16.7630 O   0  0  0  0  0  0  0  0  0  0  0  0
   -5.8480   -0.6380   16.7830 N   0  0  0  0  0  0  0  0  0  0  0  0
  2  1  1  0
  7  1  1  0
  3  2  1  0
  4  3  1  0
  5  4  1  0
  6  5  1  0
  7  6  1  0
  8  7  1  0
  9  8  1  0
 10  9  2  0
 11  9  1  0
 16 10  1  0
 12 11  2  0
 13 11  2  0
 14 11  1  0
 15 14  2  0
 16 14  1  0
 19 15  1  0
 17 16  2  0
 18 17  1  0
 19 18  2  0
 20 19  1  0
 21 20  1  0
 22 21  2  0
 23 21  2  0
 24 21  1  0
A    1
CAE
A    2
CAA
A    3
CAB
A    4
CAC
A    5
CAD
A    6
CAG
A    7
CAF
A    8
CAH
A    9
CAI
A   10
CAJ
A   11
SAP
A   12
OAO
A   13
OAW
A   14
CAQ
A   15
CAR
A   16
CAK
A   17
CAL
A   18
CAM
A   19
CAS
A   20
OAT
A   21
SAU
A   22
OAA
A   23
OAN
A   24
NAV
M  END
>  <Id>  (70) 
3DD8_2C7_A_300

>  <ChainId>  (70) 
A

>  <AsymId>  (70) 
D

>  <SeqNum>  (70) 
300

>  <Name>  (70) 
2-(cycloheptylmethyl)-1,1-dioxido-1-benzothiophen-6-yl sulfamate

>  <SystematicName>  (70) 
[2-(cycloheptylmethyl)-1,1-dioxo-1-benzothiophen-6-yl] sulfamate

>  <Synonyms>  (70) 


>  <Type>  (70) 
NON-POLYMER

>  <Formula>  (70) 
C16 H21 N O5 S2

>  <ObservedFormula>  (70) 
C16 S2 N O5

>  <MolecularWeight>  (70) 
371.472

>  <ModifiedDate>  (70) 
2011-06-04

>  <Parent>  (70) 


>  <OneLetterCode>  (70) 


>  <SubcomponentList>  (70) 


>  <AmbiguousFlag>  (70) 
N

>  <InsertionCode>  (70) 


>  <InstanceId>  (70) 
3DD8_2C7_A_300

>  <ChemCompId>  (70) 
2C7

>  <PdbId>  (70) 
3DD8

>  <ResidueNumber>  (70) 
300

>  <InChI>  (70) 
InChI=1S/C16H21NO5S2/c17-24(20,21)22-14-8-7-13-10-15(23(18,19)16(13)11-14)9-12-5-3-1-2-4-6-12/h7-8,10-12H,1-6,9H2,(H2,17,20,21)

>  <InChIKey>  (70) 
BIASYWBGUYOWJR-UHFFFAOYSA-N

>  <SMILES>  (70) 
c1cc2c(cc1OS(=O)(=O)N)S(=O)(=O)C(=C2)CC3CCCCCC3

>  <MissingHeavyAtoms>  (70) 
0

>  <Model>  (70) 
1

>  <AltIds>  (70) 


>  <pKI>  (70) 
7.85

>  <ChemblID>  (70) 
CHEMBL476937

>  <standardized_canonical_smiles>  (70) 
NS(=O)(=O)Oc1ccc2c(c1)S(=O)(=O)C(CC1CCCCCC1)=C2

$$$$
3FFP_LC1_X_300
     RDKit          3D

 18 20  0  0  0  0  0  0  0  0999 V2000
   -6.7710    7.5470   12.2030 C   0  0  0  0  0  0  0  0  0  0  0  0
   -6.6190    8.9580   11.2610 S   0  0  0  0  0  0  0  0  0  0  0  0
   -4.9260    8.9820   11.2550 C   0  0  0  0  0  0  0  0  0  0  0  0
   -4.5390    7.9060   11.9720 N   0  0  0  0  0  0  0  0  0  0  0  0
   -5.5250    7.1310   12.4980 C   0  0  0  0  0  0  0  0  0  0  0  0
   -5.2640    5.9710   13.2600 C   0  0  0  0  0  0  0  0  0  0  0  0
   -4.0930    5.3330   13.3980 N   0  0  0  0  0  0  0  0  0  0  0  0
   -4.2800    4.2720   14.1910 C   0  0  0  0  0  0  0  0  0  0  0  0
   -3.4370    3.2640   14.6340 C   0  0  0  0  0  0  0  0  0  0  0  0
   -3.9300    2.2460   15.4640 C   0  0  0  0  0  0  0  0  0  0  0  0
   -5.2920    2.1920   15.8220 C   0  0  0  0  0  0  0  0  0  0  0  0
   -5.9790    1.0410   16.8710 S   0  0  0  0  0  0  0  0  0  0  0  0
   -7.3540    0.9900   16.7300 O   0  0  0  0  0  0  0  0  0  0  0  0
   -5.3650    1.0120   18.1680 O   0  0  0  0  0  0  0  0  0  0  0  0
   -5.4420   -0.3110   16.2900 N   0  0  0  0  0  0  0  0  0  0  0  0
   -6.1200    3.2300   15.3890 C   0  0  0  0  0  0  0  0  0  0  0  0
   -5.6070    4.2420   14.5540 C   0  0  0  0  0  0  0  0  0  0  0  0
   -6.1770    5.2850   13.9660 N   0  0  0  0  0  0  0  0  0  0  0  0
  2  1  1  0
  5  1  2  0
  3  2  1  0
  4  3  2  0
  5  4  1  0
  6  5  1  0
  7  6  1  0
 18  6  2  0
  8  7  1  0
  9  8  2  0
 17  8  1  0
 10  9  1  0
 11 10  2  0
 12 11  1  0
 16 11  1  0
 13 12  2  0
 14 12  2  0
 15 12  1  0
 17 16  2  0
 18 17  1  0
A    1
CAH
A    2
SAI
A    3
CAR
A    4
NAQ
A    5
CAP
A    6
CAO
A    7
NAN
A    8
CAM
A    9
CAL
A   10
CAK
A   11
CAD
A   12
SAC
A   13
OAA
A   14
OAJ
A   15
NAB
A   16
CAE
A   17
CAF
A   18
NAG
M  END
>  <Id>  (71) 
3FFP_LC1_X_300

>  <ChainId>  (71) 
X

>  <AsymId>  (71) 
D

>  <SeqNum>  (71) 
300

>  <Name>  (71) 
2-(1,3-thiazol-4-yl)-1H-benzimidazole-5-sulfonamide

>  <SystematicName>  (71) 
2-(1,3-thiazol-4-yl)-1H-benzimidazole-5-sulfonamide

>  <Synonyms>  (71) 


>  <Type>  (71) 
NON-POLYMER

>  <Formula>  (71) 
C10 H8 N4 O2 S2

>  <ObservedFormula>  (71) 
C10 S2 N4 O2

>  <MolecularWeight>  (71) 
280.326

>  <ModifiedDate>  (71) 
2011-06-04

>  <Parent>  (71) 


>  <OneLetterCode>  (71) 


>  <SubcomponentList>  (71) 


>  <AmbiguousFlag>  (71) 
N

>  <InsertionCode>  (71) 


>  <InstanceId>  (71) 
3FFP_LC1_X_300

>  <ChemCompId>  (71) 
LC1

>  <PdbId>  (71) 
3FFP

>  <ResidueNumber>  (71) 
300

>  <InChI>  (71) 
InChI=1S/C10H8N4O2S2/c11-18(15,16)6-1-2-7-8(3-6)14-10(13-7)9-4-17-5-12-9/h1-5H,(H,13,14)(H2,11,15,16)

>  <InChIKey>  (71) 
KGMVTZZDGKDTEU-UHFFFAOYSA-N

>  <SMILES>  (71) 
c1cc2c(cc1S(=O)(=O)N)nc([nH]2)c3cscn3

>  <MissingHeavyAtoms>  (71) 
0

>  <Model>  (71) 
1

>  <AltIds>  (71) 


>  <pKI>  (71) 
7.14

>  <ChemblID>  (71) 
CHEMBL455271

>  <standardized_canonical_smiles>  (71) 
NS(=O)(=O)c1ccc2nc(-c3cscn3)[nH]c2c1

$$$$
3R16_5UN_A_1
     RDKit          3D

 19 20  0  0  0  0  0  0  0  0999 V2000
   16.1720    1.8950   15.7370 C   0  0  0  0  0  0  0  0  0  0  0  0
   15.9350   -0.8040   16.0720 N   0  0  0  0  0  0  0  0  0  0  0  0
   15.8710    0.7630   18.0610 O   0  0  0  0  0  0  0  0  0  0  0  0
   15.4390    0.6100   16.6920 S   0  0  0  0  0  0  0  0  0  0  0  0
   17.5360    1.8430   15.5210 C   0  0  0  0  0  0  0  0  0  0  0  0
   14.0130    0.7630   16.6330 O   0  0  0  0  0  0  0  0  0  0  0  0
   18.1560    2.8290   14.7850 C   0  0  0  0  0  0  0  0  0  0  0  0
   17.4200    3.8790   14.2680 C   0  0  0  0  0  0  0  0  0  0  0  0
   16.0450    3.9430   14.4860 C   0  0  0  0  0  0  0  0  0  0  0  0
   15.4150    2.9450   15.2240 C   0  0  0  0  0  0  0  0  0  0  0  0
   18.1730    4.8440   13.5260 N   0  0  0  0  0  0  0  0  0  0  0  0
   17.6640    6.0070   12.8750 C   0  0  0  0  0  0  0  0  0  0  0  0
   16.4860    6.3110   12.9030 O   0  0  0  0  0  0  0  0  0  0  0  0
   18.6490    6.8720   12.1620 C   0  0  0  0  0  0  0  0  0  0  0  0
   19.2120    7.9640   13.0000 C   0  0  0  0  0  0  0  0  0  0  0  0
   19.2110    9.3260   12.7200 C   0  0  0  0  0  0  0  0  0  0  0  0
   19.7880   10.1280   13.6920 C   0  0  0  0  0  0  0  0  0  0  0  0
   20.2930    9.4580   14.7980 C   0  0  0  0  0  0  0  0  0  0  0  0
   19.9730    7.7930   14.5320 S   0  0  0  0  0  0  0  0  0  0  0  0
  4  1  1  0
  5  1  2  0
 10  1  1  0
  4  2  1  0
  4  3  2  0
  6  4  2  0
  7  5  1  0
  8  7  2  0
  9  8  1  0
 11  8  1  0
 10  9  2  0
 12 11  1  0
 13 12  2  0
 14 12  1  0
 15 14  1  0
 16 15  2  0
 19 15  1  0
 17 16  1  0
 18 17  2  0
 19 18  1  0
A    1
C01
A    2
N01
A    3
O01
A    4
S01
A    5
C02
A    6
O02
A    7
C03
A    8
C04
A    9
C05
A   10
C06
A   11
N07
A   12
C08
A   13
O08
A   14
C09
A   15
C10
A   16
C11
A   17
C12
A   18
C13
A   19
S14
M  END
>  <Id>  (72) 
3R16_5UN_A_1

>  <ChainId>  (72) 
A

>  <AsymId>  (72) 
D

>  <SeqNum>  (72) 
1

>  <Name>  (72) 
N-(4-sulfamoylphenyl)-2-(thiophen-2-yl)acetamide

>  <SystematicName>  (72) 
N-(4-sulfamoylphenyl)-2-thiophen-2-yl-ethanamide

>  <Synonyms>  (72) 


>  <Type>  (72) 
NON-POLYMER

>  <Formula>  (72) 
C12 H12 N2 O3 S2

>  <ObservedFormula>  (72) 
C12 S2 N2 O3

>  <MolecularWeight>  (72) 
296.365

>  <ModifiedDate>  (72) 
2011-06-04

>  <Parent>  (72) 


>  <OneLetterCode>  (72) 


>  <SubcomponentList>  (72) 


>  <AmbiguousFlag>  (72) 
N

>  <InsertionCode>  (72) 


>  <InstanceId>  (72) 
3R16_5UN_A_1

>  <ChemCompId>  (72) 
5UN

>  <PdbId>  (72) 
3R16

>  <ResidueNumber>  (72) 
1

>  <InChI>  (72) 
InChI=1S/C12H12N2O3S2/c13-19(16,17)11-5-3-9(4-6-11)14-12(15)8-10-2-1-7-18-10/h1-7H,8H2,(H,14,15)(H2,13,16,17)

>  <InChIKey>  (72) 
ZQWXOBLMDBJRLY-UHFFFAOYSA-N

>  <SMILES>  (72) 
c1cc(sc1)CC(=O)Nc2ccc(cc2)S(=O)(=O)N

>  <MissingHeavyAtoms>  (72) 
0

>  <Model>  (72) 
1

>  <AltIds>  (72) 


>  <pKI>  (72) 
7.3

>  <ChemblID>  (72) 
CHEMBL573127

>  <standardized_canonical_smiles>  (72) 
NS(=O)(=O)c1ccc(NC(=O)Cc2cccs2)cc1

$$$$
5UMC_UNL_A_304
     RDKit          3D

 22  0  0  0  0  0  0  0  0  0999 V2000
   -2.3360    9.3250   80.1920 C   0  0  0  0  0  0  0  0  0  0  0  0
   -1.5820   10.4660   80.3280 C   0  0  0  0  0  0  0  0  0  0  0  0
   -1.8990    8.1410   80.7400 C   0  0  0  0  0  0  0  0  0  0  0  0
   -0.2300    3.6210   84.7720 C   0  0  0  0  0  0  0  0  0  0  0  0
   -2.4110    4.5820   84.8050 C   0  0  0  0  0  0  0  0  0  0  0  0
   -0.3860   10.4270   81.0160 C   0  0  0  0  0  0  0  0  0  0  0  0
   -0.7070    8.0950   81.4250 C   0  0  0  0  0  0  0  0  0  0  0  0
   -0.6650    2.5750   85.5560 C   0  0  0  0  0  0  0  0  0  0  0  0
   -2.8600    3.5480   85.5800 C   0  0  0  0  0  0  0  0  0  0  0  0
   -1.1040    4.6200   84.4000 C   0  0  0  0  0  0  0  0  0  0  0  0
    0.0510    9.2400   81.5650 C   0  0  0  0  0  0  0  0  0  0  0  0
   -1.9820    2.5530   85.9500 C   0  0  0  0  0  0  0  0  0  0  0  0
    1.4580    8.3460   83.3290 C   0  0  0  0  0  0  0  0  0  0  0  0
   -0.6300    5.7420   83.5600 C   0  0  0  0  0  0  0  0  0  0  0  0
    0.8040    6.0620   83.9160 C   0  0  0  0  0  0  0  0  0  0  0  0
   -2.0750   -0.0850   86.0360 N   0  0  0  0  0  0  0  0  0  0  0  0
    1.2760    9.2170   82.2710 N   0  0  0  0  0  0  0  0  0  0  0  0
    1.3700    7.0080   82.9790 N   0  0  0  0  0  0  0  0  0  0  0  0
   -1.9350    1.0960   88.2520 O   0  0  0  0  0  0  0  0  0  0  0  0
   -4.0470    1.3810   86.9210 O   0  0  0  0  0  0  0  0  0  0  0  0
    1.7950    8.8970   85.0510 Se  0  0  0  0  0  2  0  0  0  0  0  0
   -2.6030    1.2140   86.9610 S   0  0  0  0  0  0  0  0  0  0  0  0
A    1
C1
A    2
C2
A    3
C3
A    4
C4
A    5
C5
A    6
C6
A    7
C7
A    8
C8
A    9
C9
A   10
C10
A   11
C11
A   12
C12
A   13
C13
A   14
C14
A   15
C15
A   16
N16
A   17
N17
A   18
N18
A   19
O19
A   20
O20
A   21
SE21
A   22
S22
M  END
>  <Id>  (73) 
5UMC_UNL_A_304

>  <ChainId>  (73) 
A

>  <AsymId>  (73) 
E

>  <SeqNum>  (73) 
304

>  <Name>  (73) 
Unknown ligand

>  <SystematicName>  (73) 
null

>  <Synonyms>  (73) 


>  <Type>  (73) 
NON-POLYMER

>  <Formula>  (73) 


>  <ObservedFormula>  (73) 
Se C15 S N3 O2

>  <MolecularWeight>  (73) 
0.0

>  <ModifiedDate>  (73) 
2008-12-05

>  <Parent>  (73) 


>  <OneLetterCode>  (73) 


>  <SubcomponentList>  (73) 


>  <AmbiguousFlag>  (73) 
Y

>  <InsertionCode>  (73) 


>  <InstanceId>  (73) 
5UMC_UNL_A_304

>  <ChemCompId>  (73) 
UNL

>  <PdbId>  (73) 
5UMC

>  <ResidueNumber>  (73) 
304

>  <InChI>  (73) 
null

>  <InChIKey>  (73) 
null

>  <SMILES>  (73) 


>  <MissingHeavyAtoms>  (73) 
21

>  <Model>  (73) 
1

>  <AltIds>  (73) 


>  <pKI>  (73) 
6.41

>  <ChemblID>  (73) 
CHEMBL574246

>  <standardized_canonical_smiles>  (73) 
NS(=O)(=O)c1ccc(NC(=O)Cc2cccs2)c(F)c1

$$$$
5UMC_GOL_A_303
     RDKit          3D

  6  5  0  0  0  0  0  0  0  0999 V2000
   16.9940   -5.3950   94.5580 C   0  0  0  0  0  0  0  0  0  0  0  0
   16.6090   -6.7340   94.4850 O   0  0  0  0  0  0  0  0  0  0  0  0
   17.6080   -5.0750   95.9240 C   0  0  0  0  0  0  0  0  0  0  0  0
   18.6350   -6.0190   96.1920 O   0  0  0  0  0  0  0  0  0  0  0  0
   18.2090   -3.6810   95.9580 C   0  0  0  0  0  0  0  0  0  0  0  0
   18.8790   -3.4100   94.7300 O   0  0  0  0  0  0  0  0  0  0  0  0
  2  1  1  0
  3  1  1  0
  4  3  1  0
  5  3  1  0
  6  5  1  0
A    1
C1
A    2
O1
A    3
C2
A    4
O2
A    5
C3
A    6
O3
M  END
>  <Id>  (74) 
5UMC_GOL_A_303

>  <ChainId>  (74) 
A

>  <AsymId>  (74) 
D

>  <SeqNum>  (74) 
303

>  <Name>  (74) 
GLYCEROL

>  <SystematicName>  (74) 
propane-1,2,3-triol

>  <Synonyms>  (74) 
GLYCERIN; PROPANE-1,2,3-TRIOL

>  <Type>  (74) 
NON-POLYMER

>  <Formula>  (74) 
C3 H8 O3

>  <ObservedFormula>  (74) 
C3 O3

>  <MolecularWeight>  (74) 
92.094

>  <ModifiedDate>  (74) 
2011-06-04

>  <Parent>  (74) 


>  <OneLetterCode>  (74) 


>  <SubcomponentList>  (74) 


>  <AmbiguousFlag>  (74) 
N

>  <InsertionCode>  (74) 


>  <InstanceId>  (74) 
5UMC_GOL_A_303

>  <ChemCompId>  (74) 
GOL

>  <PdbId>  (74) 
5UMC

>  <ResidueNumber>  (74) 
303

>  <InChI>  (74) 
InChI=1S/C3H8O3/c4-1-3(6)2-5/h3-6H,1-2H2

>  <InChIKey>  (74) 
PEDCQBHIVMGVHV-UHFFFAOYSA-N

>  <SMILES>  (74) 
C(C(CO)O)O

>  <MissingHeavyAtoms>  (74) 
0

>  <Model>  (74) 
1

>  <AltIds>  (74) 


>  <pKI>  (74) 
6.41

>  <ChemblID>  (74) 
CHEMBL574246

>  <standardized_canonical_smiles>  (74) 
NS(=O)(=O)c1ccc(NC(=O)Cc2cccs2)c(F)c1

$$$$
3R17_5UM_B_1
     RDKit          3D

 20 21  0  0  0  0  0  0  0  0999 V2000
   16.0140    2.0450   15.7920 C   0  0  0  0  0  0  0  0  0  0  0  0
   14.8980    5.1530   14.3660 F   0  0  0  0  0  0  0  0  0  0  0  0
   15.8390   -0.7040   16.1370 N   0  0  0  0  0  0  0  0  0  0  0  0
   15.7850    0.8270   18.0890 O   0  0  0  0  0  0  0  0  0  0  0  0
   15.3160    0.7160   16.7340 S   0  0  0  0  0  0  0  0  0  0  0  0
   15.1790    3.0880   15.4280 C   0  0  0  0  0  0  0  0  0  0  0  0
   13.8810    0.8000   16.7290 O   0  0  0  0  0  0  0  0  0  0  0  0
   15.6950    4.1430   14.7010 C   0  0  0  0  0  0  0  0  0  0  0  0
   17.0250    4.1580   14.3310 C   0  0  0  0  0  0  0  0  0  0  0  0
   17.8670    3.1140   14.6870 C   0  0  0  0  0  0  0  0  0  0  0  0
   17.3550    2.0610   15.4310 C   0  0  0  0  0  0  0  0  0  0  0  0
   17.4860    5.2730   13.5690 N   0  0  0  0  0  0  0  0  0  0  0  0
   18.8510    5.6800   13.4880 C   0  0  0  0  0  0  0  0  0  0  0  0
   19.7380    5.0880   14.0770 O   0  0  0  0  0  0  0  0  0  0  0  0
   19.1620    6.8700   12.6580 C   0  0  0  0  0  0  0  0  0  0  0  0
   20.0610    7.8250   13.3260 C   0  0  0  0  0  0  0  0  0  0  0  0
   21.2760    8.3030   12.8710 C   0  0  0  0  0  0  0  0  0  0  0  0
   21.9110    9.1880   13.7300 C   0  0  0  0  0  0  0  0  0  0  0  0
   21.2460    9.4630   14.9120 C   0  0  0  0  0  0  0  0  0  0  0  0
   19.8070    8.5390   14.8600 S   0  0  0  0  0  0  0  0  0  0  0  0
  5  1  1  0
  6  1  2  0
 11  1  1  0
  8  2  1  0
  5  3  1  0
  5  4  2  0
  7  5  2  0
  8  6  1  0
  9  8  2  0
 10  9  1  0
 12  9  1  0
 11 10  2  0
 13 12  1  0
 14 13  2  0
 15 13  1  0
 16 15  1  0
 17 16  2  0
 20 16  1  0
 18 17  1  0
 19 18  2  0
 20 19  1  0
A    1
C01
A    2
F01
A    3
N01
A    4
O01
A    5
S01
A    6
C02
A    7
O02
A    8
C03
A    9
C04
A   10
C05
A   11
C06
A   12
N07
A   13
C08
A   14
O08
A   15
C09
A   16
C10
A   17
C11
A   18
C12
A   19
C13
A   20
S14
M  END
>  <Id>  (75) 
3R17_5UM_B_1

>  <ChainId>  (75) 
B

>  <AsymId>  (75) 
D

>  <SeqNum>  (75) 
1

>  <Name>  (75) 
N-(2-fluoro-4-sulfamoylphenyl)-2-(thiophen-2-yl)acetamide

>  <SystematicName>  (75) 
N-(2-fluoro-4-sulfamoyl-phenyl)-2-thiophen-2-yl-ethanamide

>  <Synonyms>  (75) 


>  <Type>  (75) 
NON-POLYMER

>  <Formula>  (75) 
C12 H11 F N2 O3 S2

>  <ObservedFormula>  (75) 
C12 S2 F N2 O3

>  <MolecularWeight>  (75) 
314.356

>  <ModifiedDate>  (75) 
2011-06-04

>  <Parent>  (75) 


>  <OneLetterCode>  (75) 


>  <SubcomponentList>  (75) 


>  <AmbiguousFlag>  (75) 
N

>  <InsertionCode>  (75) 


>  <InstanceId>  (75) 
3R17_5UM_B_1

>  <ChemCompId>  (75) 
5UM

>  <PdbId>  (75) 
3R17

>  <ResidueNumber>  (75) 
1

>  <InChI>  (75) 
InChI=1S/C12H11FN2O3S2/c13-10-7-9(20(14,17)18)3-4-11(10)15-12(16)6-8-2-1-5-19-8/h1-5,7H,6H2,(H,15,16)(H2,14,17,18)

>  <InChIKey>  (75) 
XAKMDYVUOKFDSL-UHFFFAOYSA-N

>  <SMILES>  (75) 
c1cc(sc1)CC(=O)Nc2ccc(cc2F)S(=O)(=O)N

>  <MissingHeavyAtoms>  (75) 
0

>  <Model>  (75) 
1

>  <AltIds>  (75) 


>  <pKI>  (75) 
6.41

>  <ChemblID>  (75) 
CHEMBL574246

>  <standardized_canonical_smiles>  (75) 
NS(=O)(=O)c1ccc(NC(=O)Cc2cccs2)c(F)c1

$$$$
4IWZ_1GO_A_301
     RDKit          3D

 18 19  0  0  0  0  0  0  0  0999 V2000
   15.9710    6.2210   13.0720 C   0  0  0  0  0  0  0  0  0  0  0  0
   15.1750    7.6390   11.2450 C   0  0  0  0  0  0  0  0  0  0  0  0
   13.2450    8.4180   10.2330 C   0  0  0  0  0  0  0  0  0  0  0  0
   15.8180   -0.2890   16.0430 N   0  0  0  0  0  0  0  0  0  0  0  0
   15.3360    1.1360   16.6710 S   0  0  0  0  0  0  0  0  0  0  0  0
   15.7240    1.2590   18.0630 O   0  0  0  0  0  0  0  0  0  0  0  0
   13.9090    1.3420   16.5480 O   0  0  0  0  0  0  0  0  0  0  0  0
   16.0920    2.4190   15.7700 C   0  0  0  0  0  0  0  0  0  0  0  0
   17.4180    2.5520   15.6450 N   0  0  0  0  0  0  0  0  0  0  0  0
   17.8030    3.6070   14.9020 N   0  0  0  0  0  0  0  0  0  0  0  0
   16.8150    4.3570   14.4170 C   0  0  0  0  0  0  0  0  0  0  0  0
   17.0590    5.5030   13.6130 N   0  0  0  0  0  0  0  0  0  0  0  0
   14.8110    5.9000   13.2790 O   0  0  0  0  0  0  0  0  0  0  0  0
   16.2430    7.4000   12.2370 C   0  0  0  0  0  0  0  0  0  0  0  0
   14.0220    8.4220   11.3860 C   0  0  0  0  0  0  0  0  0  0  0  0
   13.7180    7.6560    9.1740 C   0  0  0  0  0  0  0  0  0  0  0  0
   15.1940    6.9450    9.6850 S   0  0  0  0  0  0  0  0  0  0  0  0
   15.3030    3.6880   14.9170 S   0  0  0  0  0  0  0  0  0  0  0  0
 12  1  1  0
 13  1  2  0
 14  1  1  0
 14  2  1  0
 15  2  2  0
 17  2  1  0
 15  3  1  0
 16  3  2  0
  5  4  1  0
  6  5  2  0
  7  5  2  0
  8  5  1  0
  9  8  2  0
 18  8  1  0
 10  9  1  0
 11 10  2  0
 12 11  1  0
 18 11  1  0
 17 16  1  0
A    1
C10
A    2
C13
A    3
C15
A    4
N01
A    5
S02
A    6
O03
A    7
O04
A    8
C05
A    9
N06
A   10
N07
A   11
C08
A   12
N09
A   13
O11
A   14
C12
A   15
C14
A   16
C16
A   17
S17
A   18
S18
M  END
>  <Id>  (76) 
4IWZ_1GO_A_301

>  <ChainId>  (76) 
A

>  <AsymId>  (76) 
B

>  <SeqNum>  (76) 
301

>  <Name>  (76) 
N-(5-sulfamoyl-1,3,4-thiadiazol-2-yl)-2-(thiophen-2-yl)acetamide

>  <SystematicName>  (76) 
N-(5-sulfamoyl-1,3,4-thiadiazol-2-yl)-2-thiophen-2-yl-ethanamide

>  <Synonyms>  (76) 


>  <Type>  (76) 
NON-POLYMER

>  <Formula>  (76) 
C8 H8 N4 O3 S3

>  <ObservedFormula>  (76) 
C8 S3 N4 O3

>  <MolecularWeight>  (76) 
304.369

>  <ModifiedDate>  (76) 
2013-12-06

>  <Parent>  (76) 


>  <OneLetterCode>  (76) 


>  <SubcomponentList>  (76) 


>  <AmbiguousFlag>  (76) 
N

>  <InsertionCode>  (76) 


>  <InstanceId>  (76) 
4IWZ_1GO_A_301

>  <ChemCompId>  (76) 
1GO

>  <PdbId>  (76) 
4IWZ

>  <ResidueNumber>  (76) 
301

>  <InChI>  (76) 
InChI=1S/C8H8N4O3S3/c9-18(14,15)8-12-11-7(17-8)10-6(13)4-5-2-1-3-16-5/h1-3H,4H2,(H2,9,14,15)(H,10,11,13)

>  <InChIKey>  (76) 
KROUVPYNINHEBZ-UHFFFAOYSA-N

>  <SMILES>  (76) 
c1cc(sc1)CC(=O)Nc2nnc(s2)S(=O)(=O)N

>  <MissingHeavyAtoms>  (76) 
0

>  <Model>  (76) 
1

>  <AltIds>  (76) 


>  <pKI>  (76) 
7.29

>  <ChemblID>  (76) 
CHEMBL574780

>  <standardized_canonical_smiles>  (76) 
NS(=O)(=O)c1nnc(NC(=O)Cc2cccs2)s1

$$$$
4ITP_1GD_A_304
     RDKit          3D

 21 22  0  0  0  0  0  0  0  0999 V2000
   20.5970    7.7900   13.4970 C   0  0  0  0  0  0  0  0  0  0  0  0
   20.7170   10.1170   14.3890 C   0  0  0  0  0  0  0  0  0  0  0  0
   19.5130   11.9570   13.2490 C   0  0  0  0  0  0  0  0  0  0  0  0
   17.8560    3.2110   14.7970 C   0  0  0  0  0  0  0  0  0  0  0  0
   17.3040    2.1500   15.5670 C   0  0  0  0  0  0  0  0  0  0  0  0
   15.8770   -0.6040   16.1330 N   0  0  0  0  0  0  0  0  0  0  0  0
   15.3050    0.7690   16.8700 S   0  0  0  0  0  0  0  0  0  0  0  0
   15.8070    0.8600   18.1860 O   0  0  0  0  0  0  0  0  0  0  0  0
   13.8790    0.7860   16.7150 O   0  0  0  0  0  0  0  0  0  0  0  0
   15.9480    2.0620   15.9240 C   0  0  0  0  0  0  0  0  0  0  0  0
   15.2010    3.1300   15.4790 C   0  0  0  0  0  0  0  0  0  0  0  0
   15.6850    4.1890   14.7300 C   0  0  0  0  0  0  0  0  0  0  0  0
   17.0150    4.2690   14.3800 C   0  0  0  0  0  0  0  0  0  0  0  0
   17.5950    5.3690   13.5200 C   0  0  0  0  0  0  0  0  0  0  0  0
   18.6730    6.2000   14.0770 N   0  0  0  0  0  0  0  0  0  0  0  0
   19.4410    6.8450   13.0770 C   0  0  0  0  0  0  0  0  0  0  0  0
   19.1950    6.7080   11.9160 O   0  0  0  0  0  0  0  0  0  0  0  0
   20.2340    9.2400   13.3980 C   0  0  0  0  0  0  0  0  0  0  0  0
   20.3360   11.4830   14.2770 C   0  0  0  0  0  0  0  0  0  0  0  0
   19.0630   11.0260   12.3080 C   0  0  0  0  0  0  0  0  0  0  0  0
   19.4220    9.7100   12.4000 C   0  0  0  0  0  0  0  0  0  0  0  0
 16  1  1  0
 18  1  1  0
 18  2  2  0
 19  2  1  0
 19  3  2  0
 20  3  1  0
  5  4  2  0
 13  4  1  0
 10  5  1  0
  7  6  1  0
  8  7  2  0
  9  7  2  0
 10  7  1  0
 11 10  2  0
 12 11  1  0
 13 12  2  0
 14 13  1  0
 15 14  1  0
 16 15  1  0
 17 16  2  0
 21 18  1  0
 21 20  2  0
A    1
C13
A    2
C15
A    3
C17
A    4
C20
A    5
C21
A    6
N1
A    7
S02
A    8
O3
A    9
O4
A   10
C5
A   11
C6
A   12
C7
A   13
C8
A   14
C9
A   15
N10
A   16
C11
A   17
O12
A   18
C14
A   19
C16
A   20
C18
A   21
C19
M  END
>  <Id>  (77) 
4ITP_1GD_A_304

>  <ChainId>  (77) 
A

>  <AsymId>  (77) 
E

>  <SeqNum>  (77) 
304

>  <Name>  (77) 
2-phenyl-N-(4-sulfamoylbenzyl)acetamide

>  <SystematicName>  (77) 
2-phenyl-N-[(4-sulfamoylphenyl)methyl]ethanamide

>  <Synonyms>  (77) 


>  <Type>  (77) 
NON-POLYMER

>  <Formula>  (77) 
C15 H16 N2 O3 S

>  <ObservedFormula>  (77) 
C15 S N2 O3

>  <MolecularWeight>  (77) 
304.364

>  <ModifiedDate>  (77) 
2013-12-27

>  <Parent>  (77) 


>  <OneLetterCode>  (77) 


>  <SubcomponentList>  (77) 


>  <AmbiguousFlag>  (77) 
N

>  <InsertionCode>  (77) 


>  <InstanceId>  (77) 
4ITP_1GD_A_304

>  <ChemCompId>  (77) 
1GD

>  <PdbId>  (77) 
4ITP

>  <ResidueNumber>  (77) 
304

>  <InChI>  (77) 
InChI=1S/C15H16N2O3S/c16-21(19,20)14-8-6-13(7-9-14)11-17-15(18)10-12-4-2-1-3-5-12/h1-9H,10-11H2,(H,17,18)(H2,16,19,20)

>  <InChIKey>  (77) 
FTDLZZRRCJRQAA-UHFFFAOYSA-N

>  <SMILES>  (77) 
c1ccc(cc1)CC(=O)NCc2ccc(cc2)S(=O)(=O)N

>  <MissingHeavyAtoms>  (77) 
0

>  <Model>  (77) 
1

>  <AltIds>  (77) 


>  <pKI>  (77) 
7.27

>  <ChemblID>  (77) 
CHEMBL574783

>  <standardized_canonical_smiles>  (77) 
NS(=O)(=O)c1ccc(CNC(=O)Cc2ccccc2)cc1

$$$$
3HKN_MFS_A_300
     RDKit          3D

 47 48  0  0  0  0  0  0  0  0999 V2000
   16.1140    4.1460   13.8670 C   0  0  0  0  0  0  0  0  0  0  0  0
   16.7560    5.2000   12.9790 C   0  0  0  0  0  0  0  0  0  0  0  0
   16.8800    7.6600   12.8930 O   0  0  0  0  0  0  0  0  0  0  0  0
   18.2170    8.1770   12.9870 C   0  0  0  0  0  0  0  0  0  0  0  0
   18.5910    8.8240   11.6630 C   0  0  0  0  0  0  0  0  0  0  0  0
   20.0350    9.2900   11.7170 C   0  0  0  0  0  0  0  0  0  0  0  0
   20.1830   10.2950   12.8430 C   0  0  0  0  0  0  0  0  0  0  0  0
   19.6660    9.6260   14.1030 C   0  0  0  0  0  0  0  0  0  0  0  0
   19.8580   10.5680   15.2820 C   0  0  0  0  0  0  0  0  0  0  0  0
   18.4550    2.7420   13.1300 C   0  0  0  0  0  0  0  0  0  0  0  0
   17.0580    2.1950   12.8370 C   0  0  0  0  0  0  0  0  0  0  0  0
   16.9900    4.9010   10.7230 C   0  0  0  0  0  0  0  0  0  0  0  0
   17.3260    6.3910   15.0350 C   0  0  0  0  0  0  0  0  0  0  0  0
   17.1910    7.6790   15.8260 C   0  0  0  0  0  0  0  0  0  0  0  0
   20.1780    6.5920   11.9110 C   0  0  0  0  0  0  0  0  0  0  0  0
   19.3000    6.8340   10.6800 C   0  0  0  0  0  0  0  0  0  0  0  0
   19.3660    6.0600    9.7260 O   0  0  0  0  0  0  0  0  0  0  0  0
   18.4810    7.9120   10.5640 O   0  0  0  0  0  0  0  0  0  0  0  0
   20.4680    9.8620   10.4740 O   0  0  0  0  0  0  0  0  0  0  0  0
   21.8170    9.7510   10.3300 C   0  0  0  0  0  0  0  0  0  0  0  0
   22.6600    9.0310   11.3850 C   0  0  0  0  0  0  0  0  0  0  0  0
   22.3660   10.2140    9.3310 O   0  0  0  0  0  0  0  0  0  0  0  0
   19.4250   11.4810   12.5680 O   0  0  0  0  0  0  0  0  0  0  0  0
   20.2800   12.5030   12.0340 C   0  0  0  0  0  0  0  0  0  0  0  0
   20.4480   13.8280   12.7820 C   0  0  0  0  0  0  0  0  0  0  0  0
   20.9790   12.2980   10.8040 O   0  0  0  0  0  0  0  0  0  0  0  0
   20.4520   11.8090   14.8700 O   0  0  0  0  0  0  0  0  0  0  0  0
   21.7840   11.8660   15.1530 C   0  0  0  0  0  0  0  0  0  0  0  0
   22.4490   10.7100   15.8870 C   0  0  0  0  0  0  0  0  0  0  0  0
   22.4480   12.8540   14.8390 O   0  0  0  0  0  0  0  0  0  0  0  0
   18.2890    9.2550   13.9330 O   0  0  0  0  0  0  0  0  0  0  0  0
   16.5870    6.5170   13.7150 C   0  0  0  0  0  0  0  0  0  0  0  0
   16.1230    5.2930   11.6960 O   0  0  0  0  0  0  0  0  0  0  0  0
   18.3310    4.2610   11.0840 C   0  0  0  0  0  0  0  0  0  0  0  0
   16.6690    5.0160    9.5420 O   0  0  0  0  0  0  0  0  0  0  0  0
   15.9400    2.8770   13.2130 O   0  0  0  0  0  0  0  0  0  0  0  0
   16.9380    1.1150   12.2610 O   0  0  0  0  0  0  0  0  0  0  0  0
   16.7910    4.0310   15.2240 C   0  0  0  0  0  0  0  0  0  0  0  0
   15.8970    2.8870   16.3430 S   0  0  0  0  0  0  0  0  0  0  0  0
   16.3410    3.1340   17.7550 O   0  0  0  0  0  0  0  0  0  0  0  0
   14.4190    3.1270   16.2540 O   0  0  0  0  0  0  0  0  0  0  0  0
   16.2250    1.3400   15.9480 N   0  0  0  0  0  0  0  0  0  0  0  0
   16.7730    5.3320   15.8320 O   0  0  0  0  0  0  0  0  0  0  0  0
   16.0530    8.3940   15.3250 O   0  0  0  0  0  0  0  0  0  0  0  0
   14.8540    7.9220   15.7630 C   0  0  0  0  0  0  0  0  0  0  0  0
   14.7630    6.7640   16.7600 C   0  0  0  0  0  0  0  0  0  0  0  0
   13.8310    8.4670   15.3540 O   0  0  0  0  0  0  0  0  0  0  0  0
  2  1  1  0
 36  1  1  0
 38  1  1  0
 32  2  1  0
 33  2  1  0
  4  3  1  0
 32  3  1  0
  5  4  1  0
 31  4  1  0
  6  5  1  0
 18  5  1  0
  7  6  1  0
 19  6  1  0
  8  7  1  0
 23  7  1  0
  9  8  1  0
 31  8  1  0
 27  9  1  0
 11 10  1  0
 36 11  1  0
 37 11  2  0
 33 12  1  0
 34 12  1  0
 35 12  2  0
 14 13  1  0
 32 13  1  0
 43 13  1  0
 44 14  1  0
 16 15  1  0
 17 16  2  0
 18 16  1  0
 20 19  1  0
 21 20  1  0
 22 20  2  0
 24 23  1  0
 25 24  1  0
 26 24  2  0
 28 27  1  0
 29 28  1  0
 30 28  2  0
 39 38  1  0
 43 38  1  0
 40 39  2  0
 41 39  2  0
 42 39  1  0
 45 44  1  0
 46 45  1  0
 47 45  2  0
A    1
C2
A    2
C3
A    3
O4
A    4
C7
A    5
C8
A    6
C9
A    7
C10
A    8
C11
A    9
C12
A   10
C13
A   11
C14
A   12
C16
A   13
C5
A   14
C6
A   15
C22
A   16
C23
A   17
O24
A   18
O8
A   19
O9
A   20
C25
A   21
C26
A   22
O27
A   23
O10
A   24
C29
A   25
C28
A   26
O30
A   27
O12
A   28
C31
A   29
C32
A   30
O33
A   31
O11
A   32
C4
A   33
O3
A   34
C17
A   35
O18
A   36
O2
A   37
O15
A   38
C1
A   39
SAI
A   40
OAM
A   41
OAE
A   42
NAJ
A   43
O5
A   44
O6
A   45
C19
A   46
C20
A   47
O21
M  END
>  <Id>  (78) 
3HKN_MFS_A_300

>  <ChainId>  (78) 
A

>  <AsymId>  (78) 
C

>  <SeqNum>  (78) 
300

>  <Name>  (78) 
(1S)-2,3,6-tri-O-acetyl-1,5-anhydro-1-sulfamoyl-4-O-(2,3,4,6-tetra-O-acetyl-beta-D-galactopyranosyl)-D-glucitol

>  <SystematicName>  (78) 
[(2S,3R,4S,5R,6R)-4-acetyloxy-6-(acetyloxymethyl)-2-sulfamoyl-5-[(2S,3R,4S,5S,6R)-3,4,5-triacetyloxy-6-(acetyloxymethyl)oxan-2-yl]oxy-oxan-3-yl] ethanoate

>  <Synonyms>  (78) 
(2,3,4,6-Tetra-O-acetyl-D-galactopyranosyl)-(1->4)-1,2,3,6-tetra-O-acetyl-1-thio-D- glucopyranosylsulfonamide

>  <Type>  (78) 
NON-POLYMER

>  <Formula>  (78) 
C26 H37 N O19 S

>  <ObservedFormula>  (78) 
C26 S N O19

>  <MolecularWeight>  (78) 
699.632

>  <ModifiedDate>  (78) 
2011-06-04

>  <Parent>  (78) 


>  <OneLetterCode>  (78) 


>  <SubcomponentList>  (78) 


>  <AmbiguousFlag>  (78) 
N

>  <InsertionCode>  (78) 


>  <InstanceId>  (78) 
3HKN_MFS_A_300

>  <ChemCompId>  (78) 
MFS

>  <PdbId>  (78) 
3HKN

>  <ResidueNumber>  (78) 
300

>  <InChI>  (78) 
InChI=1S/C26H37NO19S/c1-10(28)37-8-17-19(39-12(3)30)21(40-13(4)31)23(42-15(6)33)25(44-17)46-20-18(9-38-11(2)29)45-26(47(27,35)36)24(43-16(7)34)22(20)41-14(5)32/h17-26H,8-9H2,1-7H3,(H2,27,35,36)/t17-,18-,19+,20-,21+,22+,23-,24-,25+,26+/m1/s1

>  <InChIKey>  (78) 
PRBMNHXZLHBQIF-NDMRNNIMSA-N

>  <SMILES>  (78) 
CC(=O)OC[C@@H]1[C@@H]([C@@H]([C@H]([C@@H](O1)O[C@@H]2[C@H](O[C@H]([C@@H]([C@H]2OC(=O)C)OC(=O)C)S(=O)(=O)N)COC(=O)C)OC(=O)C)OC(=O)C)OC(=O)C

>  <MissingHeavyAtoms>  (78) 
0

>  <Model>  (78) 
1

>  <AltIds>  (78) 


>  <pKI>  (78) 
5.35

>  <ChemblID>  (78) 
CHEMBL573459

>  <standardized_canonical_smiles>  (78) 
CC(=O)OC[C@H]1O[C@@H](O[C@H]2[C@H](OC(C)=O)[C@@H](OC(C)=O)[C@H](S(N)(=O)=O)O[C@@H]2COC(C)=O)[C@H](OC(C)=O)[C@@H](OC(C)=O)[C@H]1OC(C)=O

$$$$
3HKQ_1SD_A_300
     RDKit          3D

 15 15  0  0  0  0  0  0  0  0999 V2000
   17.0460    2.1500   13.8140 O   0  0  0  0  0  0  0  0  0  0  0  0
   16.5600    3.4770   14.0360 C   0  0  0  0  0  0  0  0  0  0  0  0
   17.2540    4.4430   13.0750 C   0  0  0  0  0  0  0  0  0  0  0  0
   16.8650    4.1410   11.7320 O   0  0  0  0  0  0  0  0  0  0  0  0
   16.8400    5.8770   13.4070 C   0  0  0  0  0  0  0  0  0  0  0  0
   15.4430    6.0370   13.1470 O   0  0  0  0  0  0  0  0  0  0  0  0
   17.1130    6.1610   14.8850 C   0  0  0  0  0  0  0  0  0  0  0  0
   16.6930    7.5940   15.2180 C   0  0  0  0  0  0  0  0  0  0  0  0
   15.2970    7.7540   14.9570 O   0  0  0  0  0  0  0  0  0  0  0  0
   16.3620    5.2370   15.6880 O   0  0  0  0  0  0  0  0  0  0  0  0
   16.8230    3.8910   15.4860 C   0  0  0  0  0  0  0  0  0  0  0  0
   15.9190    2.7790   16.6260 S   0  0  0  0  0  0  0  0  0  0  0  0
   16.3670    3.0430   18.0330 O   0  0  0  0  0  0  0  0  0  0  0  0
   14.4450    3.0350   16.5230 O   0  0  0  0  0  0  0  0  0  0  0  0
   16.2440    1.2300   16.2370 N   0  0  0  0  0  0  0  0  0  0  0  0
  2  1  1  0
  3  2  1  0
 11  2  1  0
  4  3  1  0
  5  3  1  0
  6  5  1  0
  7  5  1  0
  8  7  1  0
 10  7  1  0
  9  8  1  0
 11 10  1  0
 12 11  1  0
 13 12  2  0
 14 12  2  0
 15 12  1  0
A    1
O2
A    2
C2
A    3
C3
A    4
O3
A    5
C4
A    6
O4
A    7
C5
A    8
C6
A    9
O6
A   10
O5
A   11
C1
A   12
SAI
A   13
OAM
A   14
OAE
A   15
NAJ
M  END
>  <Id>  (79) 
3HKQ_1SD_A_300

>  <ChainId>  (79) 
A

>  <AsymId>  (79) 
C

>  <SeqNum>  (79) 
300

>  <Name>  (79) 
(2S,3R,4S,5R,6R)-3,4,5-trihydroxy-6-(hydroxymethyl)oxane-2-sulfonamide

>  <SystematicName>  (79) 
(2S,3R,4S,5R,6R)-3,4,5-trihydroxy-6-(hydroxymethyl)oxane-2-sulfonamide

>  <Synonyms>  (79) 
(1S)-D-Galactopyranosylsulfonamide

>  <Type>  (79) 
NON-POLYMER

>  <Formula>  (79) 
C6 H13 N O7 S

>  <ObservedFormula>  (79) 
C6 S N O7

>  <MolecularWeight>  (79) 
243.235

>  <ModifiedDate>  (79) 
2011-06-04

>  <Parent>  (79) 


>  <OneLetterCode>  (79) 


>  <SubcomponentList>  (79) 


>  <AmbiguousFlag>  (79) 
N

>  <InsertionCode>  (79) 


>  <InstanceId>  (79) 
3HKQ_1SD_A_300

>  <ChemCompId>  (79) 
1SD

>  <PdbId>  (79) 
3HKQ

>  <ResidueNumber>  (79) 
300

>  <InChI>  (79) 
InChI=1S/C6H13NO7S/c7-15(12,13)6-5(11)4(10)3(9)2(1-8)14-6/h2-6,8-11H,1H2,(H2,7,12,13)/t2-,3+,4+,5-,6+/m1/s1

>  <InChIKey>  (79) 
OQMMAWGZUDHRTA-PHYPRBDBSA-N

>  <SMILES>  (79) 
C([C@@H]1[C@@H]([C@@H]([C@H]([C@@H](O1)S(=O)(=O)N)O)O)O)O

>  <MissingHeavyAtoms>  (79) 
0

>  <Model>  (79) 
1

>  <AltIds>  (79) 


>  <pKI>  (79) 
5.34

>  <ChemblID>  (79) 
CHEMBL569412

>  <standardized_canonical_smiles>  (79) 
NS(=O)(=O)[C@@H]1O[C@H](CO)[C@H](O)[C@H](O)[C@H]1O

$$$$
3K2F_NKX_A_264
     RDKit          3D

 33 34  0  0  0  0  0  0  0  0999 V2000
   -3.2360    6.7890   14.1940 C   0  0  0  0  0  0  0  0  0  0  0  0
   -7.0170    5.9590   12.9240 O   0  0  0  0  0  0  0  0  0  0  0  0
   -5.2880    1.0350   18.1010 O   0  0  0  0  0  0  0  0  0  0  0  0
   -4.2970    6.4700   13.1430 C   0  0  0  0  0  0  0  0  0  0  0  0
   -5.8840    5.9750   13.9000 S   0  0  0  0  0  0  0  0  0  0  0  0
   -5.5960    4.3610   14.5190 C   0  0  0  0  0  0  0  0  0  0  0  0
   -6.4610    3.5580   15.6960 S   0  0  0  0  0  0  0  0  0  0  0  0
   -5.5530    2.2090   15.6930 C   0  0  0  0  0  0  0  0  0  0  0  0
   -5.9310    0.8710   16.7560 S   0  0  0  0  0  0  0  0  0  0  0  0
   -5.4320   -0.3870   16.0890 N   0  0  0  0  0  0  0  0  0  0  0  0
   -6.2250    6.9120   15.0270 O   0  0  0  0  0  0  0  0  0  0  0  0
   -7.5070    0.8350   16.9290 O   0  0  0  0  0  0  0  0  0  0  0  0
   -3.8460    5.3110   12.2520 C   0  0  0  0  0  0  0  0  0  0  0  0
   -3.5040    3.9790   13.0060 C   0  0  0  0  0  0  0  0  0  0  0  0
   -4.5450    3.5160   14.0990 C   0  0  0  0  0  0  0  0  0  0  0  0
   -4.5700    2.3380   14.7840 C   0  0  0  0  0  0  0  0  0  0  0  0
   -3.2390    2.9770   11.9360 N   0  0  0  0  0  0  0  0  0  0  0  0
   -4.3770    2.1420   11.4930 C   0  0  0  0  0  0  0  0  0  0  0  0
   -5.1720    2.8920   10.4400 C   0  0  0  0  0  0  0  0  0  0  0  0
   -1.0430    3.5340   11.7060 O   0  0  0  0  0  0  0  0  0  0  0  0
   -2.0190    2.8610   11.3740 C   0  0  0  0  0  0  0  0  0  0  0  0
   -1.8190    1.9600   10.3760 O   0  0  0  0  0  0  0  0  0  0  0  0
   -0.5590    2.1990    9.6040 C   0  0  0  0  0  0  0  0  0  0  0  0
   -0.4810    4.5570    6.6470 O   0  0  0  0  0  0  0  0  0  0  0  0
    0.1840    3.5720    9.4300 C   0  0  0  0  0  0  0  0  0  0  0  0
   -0.7160    4.6640    9.0720 O   0  0  0  0  0  0  0  0  0  0  0  0
   -1.2960    4.6320    7.8250 N   0  0  0  0  0  0  0  0  0  0  0  0
   -2.7450    4.7140    7.7010 O   0  0  0  0  0  0  0  0  0  0  0  0
    1.4000    3.4910    8.4660 C   0  0  0  0  0  0  0  0  0  0  0  0
    2.6230    3.8780    9.1160 O   0  0  0  0  0  0  0  0  0  0  0  0
    3.6180    3.9680    8.1930 N   0  0  0  0  0  0  0  0  0  0  0  0
    3.8240    5.1940    7.4930 O   0  0  0  0  0  0  0  0  0  0  0  0
    4.4630    2.8450    7.9170 O   0  0  0  0  0  0  0  0  0  0  0  0
  4  1  1  0
  5  2  2  0
  9  3  2  0
  5  4  1  0
 13  4  1  0
  6  5  1  0
 11  5  2  0
  7  6  1  0
 15  6  2  0
  8  7  1  0
  9  8  1  0
 16  8  2  0
 10  9  1  0
 12  9  2  0
 14 13  1  0
 15 14  1  0
 17 14  1  0
 16 15  1  0
 18 17  1  0
 21 17  1  0
 19 18  1  0
 21 20  2  0
 22 21  1  0
 23 22  1  0
 25 23  1  0
 27 24  2  0
 26 25  1  0
 29 25  1  0
 27 26  1  0
 28 27  1  0
 30 29  1  0
 31 30  1  0
 32 31  1  0
 33 31  2  0
M  CHG  4  27   1  28  -1  31   1  32  -1
A    1
CAA
A    2
OAB
A    3
OAC
A    4
CAD
A    5
SAE
A    6
CAF
A    7
SAG
A    8
CAH
A    9
SAI
A   10
NAJ
A   11
OAK
A   12
OAL
A   13
CAM
A   14
CAN
A   15
CAO
A   16
CAP
A   17
NAQ
A   18
CAR
A   19
CAS
A   20
OAT
A   21
CAU
A   22
OAV
A   23
CAW
A   24
OAX
A   25
CAY
A   26
OAZ
A   27
NBA
A   28
OBB
A   29
CBC
A   30
OBD
A   31
NBE
A   32
OBF
A   33
OBG
M  END
>  <Id>  (80) 
3K2F_NKX_A_264

>  <ChainId>  (80) 
A

>  <AsymId>  (80) 
D

>  <SeqNum>  (80) 
264

>  <Name>  (80) 
(2S)-2,3-bis(nitrooxy)propyl ethyl[(4S,6S)-6-methyl-7,7-dioxido-2-sulfamoyl-5,6-dihydro-4H-thieno[2,3-b]thiopyran-4-yl]carbamate

>  <SystematicName>  (80) 
[(2S)-2,3-dinitrooxypropyl] N-ethyl-N-[(4S,6S)-6-methyl-7,7-dioxo-2-sulfamoyl-5,6-dihydro-4H-thieno[2,3-b]thiopyran-4-yl]carbamate

>  <Synonyms>  (80) 


>  <Type>  (80) 
NON-POLYMER

>  <Formula>  (80) 
C14 H20 N4 O12 S3

>  <ObservedFormula>  (80) 
C14 S3 N4 O12

>  <MolecularWeight>  (80) 
532.523

>  <ModifiedDate>  (80) 
2011-06-04

>  <Parent>  (80) 


>  <OneLetterCode>  (80) 


>  <SubcomponentList>  (80) 


>  <AmbiguousFlag>  (80) 
N

>  <InsertionCode>  (80) 


>  <InstanceId>  (80) 
3K2F_NKX_A_264

>  <ChemCompId>  (80) 
NKX

>  <PdbId>  (80) 
3K2F

>  <ResidueNumber>  (80) 
264

>  <InChI>  (80) 
InChI=1S/C14H20N4O12S3/c1-3-16(14(19)28-6-9(30-18(22)23)7-29-17(20)21)11-4-8(2)32(24,25)13-10(11)5-12(31-13)33(15,26)27/h5,8-9,11H,3-4,6-7H2,1-2H3,(H2,15,26,27)/t8-,9-,11-/m0/s1

>  <InChIKey>  (80) 
RFISBOUXKIOATP-QXEWZRGKSA-N

>  <SMILES>  (80) 
CCN([C@H]1C[C@@H](S(=O)(=O)c2c1cc(s2)S(=O)(=O)N)C)C(=O)OC[C@@H](CO[N+](=O)[O-])O[N+](=O)[O-]

>  <MissingHeavyAtoms>  (80) 
0

>  <Model>  (80) 
1

>  <AltIds>  (80) 


>  <pKI>  (80) 
7.2

>  <ChemblID>  (80) 
CHEMBL571337

>  <standardized_canonical_smiles>  (80) 
CCN(C(=O)OCC(CO[N+](=O)[O-])O[N+](=O)[O-])[C@H]1C[C@H](C)S(=O)(=O)c2sc(S(N)(=O)=O)cc21

$$$$
5BYI_4WA_A_303
     RDKit          3D

 19 20  0  0  0  0  0  0  0  0999 V2000
   13.6730    1.7870   16.6410 O   0  0  0  0  0  0  0  0  0  0  0  0
   15.1050    1.7270   16.7850 S   0  0  0  0  0  0  0  0  0  0  0  0
   15.6600    1.8270   18.1190 O   0  0  0  0  0  0  0  0  0  0  0  0
   15.6920    0.4190   16.0650 N   0  0  0  0  0  0  0  0  0  0  0  0
   15.7450    3.1170   15.9070 C   0  0  0  0  0  0  0  0  0  0  0  0
   17.1130    3.2290   15.6340 C   0  0  0  0  0  0  0  0  0  0  0  0
   17.6140    4.3680   14.9800 C   0  0  0  0  0  0  0  0  0  0  0  0
   16.7440    5.4110   14.6180 C   0  0  0  0  0  0  0  0  0  0  0  0
   15.3810    5.2920   14.8520 C   0  0  0  0  0  0  0  0  0  0  0  0
   14.8890    4.1580   15.5020 C   0  0  0  0  0  0  0  0  0  0  0  0
   17.1760    6.5440   14.0220 N   0  0  0  0  0  0  0  0  0  0  0  0
   18.4370    6.5720   13.5390 N   0  0  0  0  0  0  0  0  0  0  0  0
   19.2120    7.6800   13.5760 C   0  0  0  0  0  0  0  0  0  0  0  0
   19.0380    8.7390   14.4850 C   0  0  0  0  0  0  0  0  0  0  0  0
   19.8980    9.8540   14.4660 C   0  0  0  0  0  0  0  0  0  0  0  0
   20.9510    9.9040   13.5380 C   0  0  0  0  0  0  0  0  0  0  0  0
   21.8220   11.0200   13.5040 N   0  0  0  0  0  0  0  0  0  0  0  0
   21.1270    8.8420   12.6340 C   0  0  0  0  0  0  0  0  0  0  0  0
   20.2660    7.7350   12.6620 C   0  0  0  0  0  0  0  0  0  0  0  0
  2  1  2  0
  3  2  2  0
  4  2  1  0
  5  2  1  0
  6  5  2  0
 10  5  1  0
  7  6  1  0
  8  7  2  0
  9  8  1  0
 11  8  1  0
 10  9  2  0
 12 11  2  0
 13 12  1  0
 14 13  2  0
 19 13  1  0
 15 14  1  0
 16 15  2  0
 17 16  1  0
 18 16  1  0
 19 18  2  0
A    1
O10
A    2
S18
A    3
O9
A    4
N8
A    5
C4
A    6
C5
A    7
C6
A    8
C1
A    9
C2
A   10
C3
A   11
N11
A   12
N12
A   13
C13
A   14
C18
A   15
C17
A   16
C16
A   17
N19
A   18
C15
A   19
C14
M  END
>  <Id>  (81) 
5BYI_4WA_A_303

>  <ChainId>  (81) 
A

>  <AsymId>  (81) 
D

>  <SeqNum>  (81) 
303

>  <Name>  (81) 
4-[(E)-(4-aminophenyl)diazenyl]benzenesulfonamide

>  <SystematicName>  (81) 
4-[(4-aminophenyl)diazenyl]benzenesulfonamide

>  <Synonyms>  (81) 


>  <Type>  (81) 
NON-POLYMER

>  <Formula>  (81) 
C12 H12 N4 O2 S

>  <ObservedFormula>  (81) 
S C12 N4 O2

>  <MolecularWeight>  (81) 
276.314

>  <ModifiedDate>  (81) 
2015-07-31

>  <Parent>  (81) 


>  <OneLetterCode>  (81) 


>  <SubcomponentList>  (81) 


>  <AmbiguousFlag>  (81) 
N

>  <InsertionCode>  (81) 


>  <InstanceId>  (81) 
5BYI_4WA_A_303

>  <ChemCompId>  (81) 
4WA

>  <PdbId>  (81) 
5BYI

>  <ResidueNumber>  (81) 
303

>  <InChI>  (81) 
InChI=1S/C12H12N4O2S/c13-9-1-3-10(4-2-9)15-16-11-5-7-12(8-6-11)19(14,17)18/h1-8H,13H2,(H2,14,17,18)/b16-15+

>  <InChIKey>  (81) 
JSHXITVMUADQEA-FOCLMDBBSA-N

>  <SMILES>  (81) 
c1cc(ccc1N)N=Nc2ccc(cc2)S(=O)(=O)N

>  <MissingHeavyAtoms>  (81) 
0

>  <Model>  (81) 
1

>  <AltIds>  (81) 


>  <pKI>  (81) 
6.97

>  <ChemblID>  (81) 
CHEMBL16909

>  <standardized_canonical_smiles>  (81) 
Nc1ccc(/N=N/c2ccc(S(N)(=O)=O)cc2)cc1

$$$$
5T72_4WA_A_303
     RDKit          3D

 19 20  0  0  0  0  0  0  0  0999 V2000
   13.8130    1.7920   16.6720 O   0  0  0  0  0  0  0  0  0  0  0  0
   15.2500    1.7450   16.8520 S   0  0  0  0  0  0  0  0  0  0  0  0
   15.7640    1.8000   18.1980 O   0  0  0  0  0  0  0  0  0  0  0  0
   15.9680    0.4920   16.1510 N   0  0  0  0  0  0  0  0  0  0  0  0
   15.9330    3.0800   15.8800 C   0  0  0  0  0  0  0  0  0  0  0  0
   17.3170    3.2680   15.7850 C   0  0  0  0  0  0  0  0  0  0  0  0
   17.8320    4.3730   15.0860 C   0  0  0  0  0  0  0  0  0  0  0  0
   16.9820    5.4670   14.9420 C   0  0  0  0  0  0  0  0  0  0  0  0
   15.6400    5.1870   14.7520 C   0  0  0  0  0  0  0  0  0  0  0  0
   15.1000    4.1520   15.5300 C   0  0  0  0  0  0  0  0  0  0  0  0
   17.4370    6.6440   14.4590 N   0  0  0  0  0  0  0  0  0  0  0  0
   18.7170    6.7520   14.0540 N   0  0  0  0  0  0  0  0  0  0  0  0
   19.2110    7.9960   13.8590 C   0  0  0  0  0  0  0  0  0  0  0  0
   18.5460    9.1320   14.3380 C   0  0  0  0  0  0  0  0  0  0  0  0
   19.0790   10.4070   14.1140 C   0  0  0  0  0  0  0  0  0  0  0  0
   20.2770   10.5540   13.4150 C   0  0  0  0  0  0  0  0  0  0  0  0
   20.8030   11.8480   13.1980 N   0  0  0  0  0  0  0  0  0  0  0  0
   20.9430    9.4210   12.9350 C   0  0  0  0  0  0  0  0  0  0  0  0
   20.4090    8.1470   13.1560 C   0  0  0  0  0  0  0  0  0  0  0  0
  2  1  2  0
  3  2  2  0
  4  2  1  0
  5  2  1  0
  6  5  2  0
 10  5  1  0
  7  6  1  0
  8  7  2  0
  9  8  1  0
 11  8  1  0
 10  9  2  0
 12 11  2  0
 13 12  1  0
 14 13  2  0
 19 13  1  0
 15 14  1  0
 16 15  2  0
 17 16  1  0
 18 16  1  0
 19 18  2  0
A    1
O10
A    2
S18
A    3
O9
A    4
N8
A    5
C4
A    6
C5
A    7
C6
A    8
C1
A    9
C2
A   10
C3
A   11
N11
A   12
N12
A   13
C13
A   14
C18
A   15
C17
A   16
C16
A   17
N19
A   18
C15
A   19
C14
M  END
>  <Id>  (82) 
5T72_4WA_A_303

>  <ChainId>  (82) 
A

>  <AsymId>  (82) 
D

>  <SeqNum>  (82) 
303

>  <Name>  (82) 
4-[(E)-(4-aminophenyl)diazenyl]benzenesulfonamide

>  <SystematicName>  (82) 
4-[(4-aminophenyl)diazenyl]benzenesulfonamide

>  <Synonyms>  (82) 


>  <Type>  (82) 
NON-POLYMER

>  <Formula>  (82) 
C12 H12 N4 O2 S

>  <ObservedFormula>  (82) 
S C12 N4 O2

>  <MolecularWeight>  (82) 
276.314

>  <ModifiedDate>  (82) 
2015-07-31

>  <Parent>  (82) 


>  <OneLetterCode>  (82) 


>  <SubcomponentList>  (82) 


>  <AmbiguousFlag>  (82) 
N

>  <InsertionCode>  (82) 


>  <InstanceId>  (82) 
5T72_4WA_A_303

>  <ChemCompId>  (82) 
4WA

>  <PdbId>  (82) 
5T72

>  <ResidueNumber>  (82) 
303

>  <InChI>  (82) 
InChI=1S/C12H12N4O2S/c13-9-1-3-10(4-2-9)15-16-11-5-7-12(8-6-11)19(14,17)18/h1-8H,13H2,(H2,14,17,18)/b16-15+

>  <InChIKey>  (82) 
JSHXITVMUADQEA-FOCLMDBBSA-N

>  <SMILES>  (82) 
c1cc(ccc1N)N=Nc2ccc(cc2)S(=O)(=O)N

>  <MissingHeavyAtoms>  (82) 
0

>  <Model>  (82) 
1

>  <AltIds>  (82) 


>  <pKI>  (82) 
6.97

>  <ChemblID>  (82) 
CHEMBL16909

>  <standardized_canonical_smiles>  (82) 
Nc1ccc(/N=N/c2ccc(S(N)(=O)=O)cc2)cc1

$$$$
5T75_4WA_A_303
     RDKit          3D

 11 11  0  0  0  0  0  0  0  0999 V2000
   31.1360   -1.0490   14.5420 O   0  0  0  0  0  0  0  0  0  0  0  0
   31.9760    0.0860   14.2410 S   0  0  0  0  0  0  0  0  0  0  0  0
   31.3730    1.3460   13.8410 O   0  0  0  0  0  0  0  0  0  0  0  0
   32.9250    0.3400   15.5390 N   0  0  0  0  0  0  0  0  0  0  0  0
   33.0500   -0.5620   12.9540 C   0  0  0  0  0  0  0  0  0  0  0  0
   33.6950    0.3100   12.0370 C   0  0  0  0  0  0  0  0  0  0  0  0
   34.5290   -0.2980   11.0490 C   0  0  0  0  0  0  0  0  0  0  0  0
   34.9210   -1.6420   11.2150 C   0  0  0  0  0  0  0  0  0  0  0  0
   34.2660   -2.4410   12.1340 C   0  0  0  0  0  0  0  0  0  0  0  0
   33.5890   -1.8290   13.1870 C   0  0  0  0  0  0  0  0  0  0  0  0
   35.4630   -2.3860   10.2100 N   0  0  0  0  0  0  0  0  0  0  0  0
  2  1  2  0
  3  2  2  0
  4  2  1  0
  5  2  1  0
  6  5  2  0
 10  5  1  0
  7  6  1  0
  8  7  2  0
  9  8  1  0
 11  8  1  0
 10  9  2  0
A    1
O10
A    2
S18
A    3
O9
A    4
N8
A    5
C4
A    6
C5
A    7
C6
A    8
C1
A    9
C2
A   10
C3
A   11
N11
M  END
>  <Id>  (83) 
5T75_4WA_A_303

>  <ChainId>  (83) 
A

>  <AsymId>  (83) 
D

>  <SeqNum>  (83) 
303

>  <Name>  (83) 
4-[(E)-(4-aminophenyl)diazenyl]benzenesulfonamide

>  <SystematicName>  (83) 
4-[(4-aminophenyl)diazenyl]benzenesulfonamide

>  <Synonyms>  (83) 


>  <Type>  (83) 
NON-POLYMER

>  <Formula>  (83) 
C12 H12 N4 O2 S

>  <ObservedFormula>  (83) 
S C6 N2 O2

>  <MolecularWeight>  (83) 
276.314

>  <ModifiedDate>  (83) 
2015-07-31

>  <Parent>  (83) 


>  <OneLetterCode>  (83) 


>  <SubcomponentList>  (83) 


>  <AmbiguousFlag>  (83) 
N

>  <InsertionCode>  (83) 


>  <InstanceId>  (83) 
5T75_4WA_A_303

>  <ChemCompId>  (83) 
4WA

>  <PdbId>  (83) 
5T75

>  <ResidueNumber>  (83) 
303

>  <InChI>  (83) 
InChI=1S/C12H12N4O2S/c13-9-1-3-10(4-2-9)15-16-11-5-7-12(8-6-11)19(14,17)18/h1-8H,13H2,(H2,14,17,18)/b16-15+

>  <InChIKey>  (83) 
JSHXITVMUADQEA-FOCLMDBBSA-N

>  <SMILES>  (83) 
c1cc(ccc1N)N=Nc2ccc(cc2)S(=O)(=O)N

>  <MissingHeavyAtoms>  (83) 
8

>  <Model>  (83) 
1

>  <AltIds>  (83) 


>  <pKI>  (83) 
6.97

>  <ChemblID>  (83) 
CHEMBL16909

>  <standardized_canonical_smiles>  (83) 
Nc1ccc(/N=N/c2ccc(S(N)(=O)=O)cc2)cc1

$$$$
3P4V_PMX_A_300
     RDKit          3D

 22 22  0  0  0  0  0  0  0  0999 V2000
   17.2030    5.8910   10.7410 C   0  0  0  0  0  0  0  0  0  0  0  0
   17.7600    5.8990   13.1530 N   0  0  0  0  0  0  0  0  0  0  0  0
   17.1860    4.6670   10.7390 O   0  0  0  0  0  0  0  0  0  0  0  0
   18.8440   12.5130   12.2970 Cl  0  0  0  0  0  0  0  0  0  0  0  0
   17.7150    6.6690   11.9200 C   0  0  0  0  0  0  0  0  0  0  0  0
   19.0160    7.4160   11.6430 C   0  0  0  0  0  0  0  0  0  0  0  0
   19.3270    8.6310   12.5030 C   0  0  0  0  0  0  0  0  0  0  0  0
   15.5140    6.1210   13.6470 O   0  0  0  0  0  0  0  0  0  0  0  0
   20.3140    9.6950   14.6370 C   0  0  0  0  0  0  0  0  0  0  0  0
   15.5870    4.3200   15.5060 C   0  0  0  0  0  0  0  0  0  0  0  0
   16.6530    4.6740   14.9560 C   0  0  0  0  0  0  0  0  0  0  0  0
   16.5790    5.5950   13.9220 C   0  0  0  0  0  0  0  0  0  0  0  0
   19.9200   11.0340   14.1140 C   0  0  0  0  0  0  0  0  0  0  0  0
   20.1980   12.1780   14.8460 O   0  0  0  0  0  0  0  0  0  0  0  0
   16.7660    2.9910   17.1030 O   0  0  0  0  0  0  0  0  0  0  0  0
   15.6490    3.3560   16.6560 C   0  0  0  0  0  0  0  0  0  0  0  0
   19.2470   11.1610   12.8130 C   0  0  0  0  0  0  0  0  0  0  0  0
   14.5670    2.8620   17.1050 O   0  0  0  0  0  0  0  0  0  0  0  0
   14.5490    2.1570   18.3050 C   0  0  0  0  0  0  0  0  0  0  0  0
   18.9550    9.9270   12.0080 C   0  0  0  0  0  0  0  0  0  0  0  0
   20.0260    8.4970   13.8490 C   0  0  0  0  0  0  0  0  0  0  0  0
   16.6770    6.5580    9.6600 O   0  0  0  0  0  0  0  0  0  0  0  0
  3  1  2  0
  5  1  1  0
 22  1  1  0
  5  2  1  0
 12  2  1  0
 17  4  1  0
  6  5  1  0
  7  6  1  0
 20  7  2  0
 21  7  1  0
 12  8  2  0
 13  9  1  0
 21  9  2  0
 11 10  2  0
 16 10  1  0
 12 11  1  0
 14 13  1  0
 17 13  2  0
 16 15  2  0
 18 16  1  0
 20 17  1  0
 19 18  1  0
A    1
C
A    2
N
A    3
O
A    4
CL
A    5
CA
A    6
CB
A    7
CG
A    8
OAA
A    9
CAC
A   10
CAD
A   11
CAE
A   12
CAF
A   13
CAK
A   14
OAL
A   15
OAM
A   16
CAN
A   17
CAS
A   18
OAU
A   19
CAV
A   20
CD1
A   21
CD2
A   22
OXT
M  END
>  <Id>  (84) 
3P4V_PMX_A_300

>  <ChainId>  (84) 
A

>  <AsymId>  (84) 
C

>  <SeqNum>  (84) 
300

>  <Name>  (84) 
3-chloro-N-[(2E)-4-methoxy-4-oxobut-2-enoyl]-L-tyrosine

>  <SystematicName>  (84) 
(2S)-3-(3-chloro-4-hydroxy-phenyl)-2-[[(E)-4-methoxy-4-oxo-but-2-enoyl]amino]propanoic acid

>  <Synonyms>  (84) 
(+)-Xylariamide A

>  <Type>  (84) 
NON-POLYMER

>  <Formula>  (84) 
C14 H14 Cl N O6

>  <ObservedFormula>  (84) 
C14 Cl N O6

>  <MolecularWeight>  (84) 
327.717

>  <ModifiedDate>  (84) 
2011-06-04

>  <Parent>  (84) 


>  <OneLetterCode>  (84) 


>  <SubcomponentList>  (84) 


>  <AmbiguousFlag>  (84) 
N

>  <InsertionCode>  (84) 


>  <InstanceId>  (84) 
3P4V_PMX_A_300

>  <ChemCompId>  (84) 
PMX

>  <PdbId>  (84) 
3P4V

>  <ResidueNumber>  (84) 
300

>  <InChI>  (84) 
InChI=1S/C14H14ClNO6/c1-22-13(19)5-4-12(18)16-10(14(20)21)7-8-2-3-11(17)9(15)6-8/h2-6,10,17H,7H2,1H3,(H,16,18)(H,20,21)/b5-4+/t10-/m0/s1

>  <InChIKey>  (84) 
KCOKHEIACSQLBQ-YEZKRMTDSA-N

>  <SMILES>  (84) 
COC(=O)/C=C/C(=O)N[C@@H](Cc1ccc(c(c1)Cl)O)C(=O)O

>  <MissingHeavyAtoms>  (84) 
0

>  <Model>  (84) 
1

>  <AltIds>  (84) 


>  <pKI>  (84) 
5.1

>  <ChemblID>  (84) 
CHEMBL463134

>  <standardized_canonical_smiles>  (84) 
COC(=O)/C=C/C(=O)N[C@@H](Cc1ccc(O)c(Cl)c1)C(=O)O

$$$$
3NB5_R21_A_300
     RDKit          3D

 24 25  0  0  0  0  0  0  0  0999 V2000
   16.0750   14.0200   10.5570 Cl  0  0  0  0  0  0  0  0  0  0  0  0
   13.9200    2.7940   16.7340 O   0  0  0  0  0  0  0  0  0  0  0  0
   17.6320   16.2050   11.7850 O   0  0  0  0  0  0  0  0  0  0  0  0
   18.2210   14.9840   11.8950 C   0  0  0  0  0  0  0  0  0  0  0  0
   19.4460   14.8610   12.5400 C   0  0  0  0  0  0  0  0  0  0  0  0
   20.0590   13.6170   12.6370 C   0  0  0  0  0  0  0  0  0  0  0  0
   19.9430   10.6690   14.4990 O   0  0  0  0  0  0  0  0  0  0  0  0
   15.6480    6.2280   14.7040 C   0  0  0  0  0  0  0  0  0  0  0  0
   15.1720    5.1820   15.4860 C   0  0  0  0  0  0  0  0  0  0  0  0
   16.0280    4.1560   15.8710 C   0  0  0  0  0  0  0  0  0  0  0  0
   15.4180    2.8090   16.8070 S   0  0  0  0  0  0  0  0  0  0  0  0
   16.0170    1.4180   16.2050 N   0  0  0  0  0  0  0  0  0  0  0  0
   17.6050   13.8620   11.3500 C   0  0  0  0  0  0  0  0  0  0  0  0
   18.2190   12.6180   11.4470 C   0  0  0  0  0  0  0  0  0  0  0  0
   19.4470   12.4960   12.0880 C   0  0  0  0  0  0  0  0  0  0  0  0
   20.1550   11.1400   12.1450 C   0  0  0  0  0  0  0  0  0  0  0  0
   19.6700   10.3290   13.3480 C   0  0  0  0  0  0  0  0  0  0  0  0
   18.9540    9.2520   13.0370 N   0  0  0  0  0  0  0  0  0  0  0  0
   18.4060    8.3380   14.0510 C   0  0  0  0  0  0  0  0  0  0  0  0
   17.4780    7.3400   13.3550 C   0  0  0  0  0  0  0  0  0  0  0  0
   16.9790    6.2480   14.3040 C   0  0  0  0  0  0  0  0  0  0  0  0
   17.8380    5.2280   14.6980 C   0  0  0  0  0  0  0  0  0  0  0  0
   17.3620    4.1830   15.4810 C   0  0  0  0  0  0  0  0  0  0  0  0
   15.8550    2.9550   18.2350 O   0  0  0  0  0  0  0  0  0  0  0  0
 13  1  1  0
 11  2  2  0
  4  3  1  0
  5  4  2  0
 13  4  1  0
  6  5  1  0
 15  6  2  0
 17  7  2  0
  9  8  2  0
 21  8  1  0
 10  9  1  0
 11 10  1  0
 23 10  2  0
 12 11  1  0
 24 11  2  0
 14 13  2  0
 15 14  1  0
 16 15  1  0
 17 16  1  0
 18 17  1  0
 19 18  1  0
 20 19  1  0
 21 20  1  0
 22 21  2  0
 23 22  1  0
A    1
CL
A    2
OAA
A    3
OAB
A    4
CAC
A    5
CAD
A    6
CAE
A    7
OAF
A    8
CAG
A    9
CAH
A   10
CAI
A   11
SAJ
A   12
NAK
A   13
CAL
A   14
CAM
A   15
CAN
A   16
CAO
A   17
CAP
A   18
NAQ
A   19
CAR
A   20
CAS
A   21
CAT
A   22
CAU
A   23
CAV
A   24
OAW
M  END
>  <Id>  (85) 
3NB5_R21_A_300

>  <ChainId>  (85) 
A

>  <AsymId>  (85) 
C

>  <SeqNum>  (85) 
300

>  <Name>  (85) 
2-(3-chloro-4-hydroxyphenyl)-N-[2-(4-sulfamoylphenyl)ethyl]acetamide

>  <SystematicName>  (85) 
2-(3-chloro-4-hydroxy-phenyl)-N-[2-(4-sulfamoylphenyl)ethyl]ethanamide

>  <Synonyms>  (85) 
2-(3-chloro-4-hydroxyphenyl)-N-(4-sulfamoylphenethyl)acetamide

>  <Type>  (85) 
NON-POLYMER

>  <Formula>  (85) 
C16 H17 Cl N2 O4 S

>  <ObservedFormula>  (85) 
C16 S Cl N2 O4

>  <MolecularWeight>  (85) 
368.835

>  <ModifiedDate>  (85) 
2011-06-04

>  <Parent>  (85) 


>  <OneLetterCode>  (85) 


>  <SubcomponentList>  (85) 


>  <AmbiguousFlag>  (85) 
N

>  <InsertionCode>  (85) 


>  <InstanceId>  (85) 
3NB5_R21_A_300

>  <ChemCompId>  (85) 
R21

>  <PdbId>  (85) 
3NB5

>  <ResidueNumber>  (85) 
300

>  <InChI>  (85) 
InChI=1S/C16H17ClN2O4S/c17-14-9-12(3-6-15(14)20)10-16(21)19-8-7-11-1-4-13(5-2-11)24(18,22)23/h1-6,9,20H,7-8,10H2,(H,19,21)(H2,18,22,23)

>  <InChIKey>  (85) 
MALIONKMKPITBV-UHFFFAOYSA-N

>  <SMILES>  (85) 
c1cc(ccc1CCNC(=O)Cc2ccc(c(c2)Cl)O)S(=O)(=O)N

>  <MissingHeavyAtoms>  (85) 
0

>  <Model>  (85) 
1

>  <AltIds>  (85) 


>  <pKI>  (85) 
7.74

>  <ChemblID>  (85) 
CHEMBL606453

>  <standardized_canonical_smiles>  (85) 
NS(=O)(=O)c1ccc(CCNC(=O)Cc2ccc(O)c(Cl)c2)cc1

$$$$
6MBY_FER_A_302
     RDKit          3D

 14 14  0  0  0  0  0  0  0  0999 V2000
  -25.9070    7.7090   12.0240 C   0  0  0  0  0  0  0  0  0  0  0  0
  -27.1640    7.1090   12.0900 C   0  0  0  0  0  0  0  0  0  0  0  0
  -27.3160    5.9760   12.8910 C   0  0  0  0  0  0  0  0  0  0  0  0
  -24.8330    7.2120   12.7290 C   0  0  0  0  0  0  0  0  0  0  0  0
  -24.9880    6.0840   13.5360 C   0  0  0  0  0  0  0  0  0  0  0  0
  -26.2350    5.4710   13.6100 C   0  0  0  0  0  0  0  0  0  0  0  0
  -22.7280    7.7220   13.6910 C   0  0  0  0  0  0  0  0  0  0  0  0
  -26.4120    4.2310   14.4980 C   0  0  0  0  0  0  0  0  0  0  0  0
  -25.3980    3.5670   14.9050 C   0  0  0  0  0  0  0  0  0  0  0  0
  -25.6630    2.3460   15.8200 C   0  0  0  0  0  0  0  0  0  0  0  0
  -26.8990    2.0850   16.1030 O   0  0  0  0  0  0  0  0  0  0  0  0
  -24.7510    1.6520   16.2900 O   0  0  0  0  0  0  0  0  0  0  0  0
  -25.6980    8.8630   11.2030 O   0  0  0  0  0  0  0  0  0  0  0  0
  -23.5840    7.8660   12.6170 O   0  0  0  0  0  0  0  0  0  0  0  0
  2  1  2  0
  4  1  1  0
 13  1  1  0
  3  2  1  0
  6  3  2  0
  5  4  2  0
 14  4  1  0
  6  5  1  0
  8  6  1  0
 14  7  1  0
  9  8  2  0
 10  9  1  0
 11 10  2  0
 12 10  1  0
A    1
C4
A    2
C5
A    3
C6
A    4
C3
A    5
C2
A    6
C1
A    7
C10
A    8
C7
A    9
C8
A   10
C9
A   11
O1
A   12
O2
A   13
O4
A   14
O3
M  END
>  <Id>  (86) 
6MBY_FER_A_302

>  <ChainId>  (86) 
A

>  <AsymId>  (86) 
C

>  <SeqNum>  (86) 
302

>  <Name>  (86) 
3-(4-HYDROXY-3-METHOXYPHENYL)-2-PROPENOIC ACID

>  <SystematicName>  (86) 
(E)-3-(4-hydroxy-3-methoxy-phenyl)prop-2-enoic acid

>  <Synonyms>  (86) 
FERULIC ACID

>  <Type>  (86) 
NON-POLYMER

>  <Formula>  (86) 
C10 H10 O4

>  <ObservedFormula>  (86) 
C10 O4

>  <MolecularWeight>  (86) 
194.184

>  <ModifiedDate>  (86) 
2011-06-04

>  <Parent>  (86) 


>  <OneLetterCode>  (86) 


>  <SubcomponentList>  (86) 


>  <AmbiguousFlag>  (86) 
N

>  <InsertionCode>  (86) 


>  <InstanceId>  (86) 
6MBY_FER_A_302

>  <ChemCompId>  (86) 
FER

>  <PdbId>  (86) 
6MBY

>  <ResidueNumber>  (86) 
302

>  <InChI>  (86) 
InChI=1S/C10H10O4/c1-14-9-6-7(2-4-8(9)11)3-5-10(12)13/h2-6,11H,1H3,(H,12,13)/b5-3+

>  <InChIKey>  (86) 
KSEBMYQBYZTDHS-HWKANZROSA-N

>  <SMILES>  (86) 
COc1cc(ccc1O)\C=C\C(=O)O

>  <MissingHeavyAtoms>  (86) 
0

>  <Model>  (86) 
1

>  <AltIds>  (86) 


>  <pKI>  (86) 
5.62

>  <ChemblID>  (86) 
CHEMBL32749

>  <standardized_canonical_smiles>  (86) 
COc1cc(/C=C/C(=O)O)ccc1O

$$$$
2HL4_BO1_A_264
     RDKit          3D

 22 23  0  0  0  0  0  0  0  0999 V2000
   -5.9720    0.9500   16.6870 S   0  0  0  0  0  0  0  0  0  0  0  0
   -5.4260    1.0860   18.0080 O   0  0  0  0  0  0  0  0  0  0  0  0
   -7.3950    1.0440   16.5180 O   0  0  0  0  0  0  0  0  0  0  0  0
   -5.4870   -0.4620   16.1140 N   0  0  0  0  0  0  0  0  0  0  0  0
   -5.2420    2.2240   15.7260 C   0  0  0  0  0  0  0  0  0  0  0  0
   -6.0080    3.3220   15.2590 C   0  0  0  0  0  0  0  0  0  0  0  0
   -5.4050    4.3220   14.5030 C   0  0  0  0  0  0  0  0  0  0  0  0
   -4.0030    4.2580   14.1840 C   0  0  0  0  0  0  0  0  0  0  0  0
   -3.2600    3.1490   14.6640 C   0  0  0  0  0  0  0  0  0  0  0  0
   -3.8660    2.1560   15.4160 C   0  0  0  0  0  0  0  0  0  0  0  0
   -3.3500    5.2310   13.4360 N   0  0  0  0  0  0  0  0  0  0  0  0
   -3.8590    6.5120   13.1010 C   0  0  0  0  0  0  0  0  0  0  0  0
   -2.8340    7.3080   12.2910 C   0  0  0  0  0  0  0  0  0  0  0  0
   -3.4220    8.6770   11.9380 C   0  0  0  0  0  0  0  0  0  0  0  0
   -4.6740    8.4710   11.1120 C   0  0  0  0  0  0  0  0  0  0  0  0
   -5.6970    7.6530   11.9440 C   0  0  0  0  0  0  0  0  0  0  0  0
   -6.9700    7.3730   11.1970 C   0  0  0  0  0  0  0  0  0  0  0  0
   -5.1070    6.3680   12.3240 O   0  0  0  0  0  0  0  0  0  0  0  0
   -1.6550    7.4390   13.0930 O   0  0  0  0  0  0  0  0  0  0  0  0
   -2.4590    9.4140   11.1850 O   0  0  0  0  0  0  0  0  0  0  0  0
   -5.2430    9.7390   10.7680 O   0  0  0  0  0  0  0  0  0  0  0  0
   -6.7370    6.4480   10.1410 O   0  0  0  0  0  0  0  0  0  0  0  0
  2  1  2  0
  3  1  2  0
  4  1  1  0
  5  1  1  0
  6  5  2  0
 10  5  1  0
  7  6  1  0
  8  7  2  0
  9  8  1  0
 11  8  1  0
 10  9  2  0
 12 11  1  0
 13 12  1  0
 18 12  1  0
 14 13  1  0
 19 13  1  0
 15 14  1  0
 20 14  1  0
 16 15  1  0
 21 15  1  0
 17 16  1  0
 18 16  1  0
 22 17  1  0
A    1
S1
A    2
O1
A    3
O2
A    4
N1
A    5
C1
A    6
C2
A    7
C3
A    8
C4
A    9
C5
A   10
C6
A   11
N2
A   12
C7
A   13
C8
A   14
C9
A   15
C10
A   16
C11
A   17
C12
A   18
O3
A   19
O4
A   20
O5
A   21
O6
A   22
O7
M  END
>  <Id>  (87) 
2HL4_BO1_A_264

>  <ChainId>  (87) 
A

>  <AsymId>  (87) 
D

>  <SeqNum>  (87) 
264

>  <Name>  (87) 
N-[4-(AMINOSULFONYL)PHENYL]-BETA-D-GLUCOPYRANOSYLAMINE

>  <SystematicName>  (87) 
4-[[(2R,3R,4S,5S,6R)-3,4,5-trihydroxy-6-(hydroxymethyl)oxan-2-yl]amino]benzenesulfonamide

>  <Synonyms>  (87) 


>  <Type>  (87) 
NON-POLYMER

>  <Formula>  (87) 
C12 H18 N2 O7 S

>  <ObservedFormula>  (87) 
S C12 N2 O7

>  <MolecularWeight>  (87) 
334.346

>  <ModifiedDate>  (87) 
2011-06-04

>  <Parent>  (87) 


>  <OneLetterCode>  (87) 


>  <SubcomponentList>  (87) 


>  <AmbiguousFlag>  (87) 
N

>  <InsertionCode>  (87) 


>  <InstanceId>  (87) 
2HL4_BO1_A_264

>  <ChemCompId>  (87) 
BO1

>  <PdbId>  (87) 
2HL4

>  <ResidueNumber>  (87) 
264

>  <InChI>  (87) 
InChI=1S/C12H18N2O7S/c13-22(19,20)7-3-1-6(2-4-7)14-12-11(18)10(17)9(16)8(5-15)21-12/h1-4,8-12,14-18H,5H2,(H2,13,19,20)/t8-,9-,10+,11-,12-/m1/s1

>  <InChIKey>  (87) 
RMCYKIOWPVOBJX-RMPHRYRLSA-N

>  <SMILES>  (87) 
c1cc(ccc1N[C@H]2[C@@H]([C@H]([C@@H]([C@H](O2)CO)O)O)O)S(=O)(=O)N

>  <MissingHeavyAtoms>  (87) 
0

>  <Model>  (87) 
1

>  <AltIds>  (87) 


>  <pKI>  (87) 
7.64

>  <ChemblID>  (87) 
CHEMBL1089968

>  <standardized_canonical_smiles>  (87) 
NS(=O)(=O)c1ccc(N[C@@H]2O[C@H](CO)[C@@H](O)[C@H](O)[C@H]2O)cc1

$$$$
3ML2_SU0_A_263
     RDKit          3D

 27 29  0  0  0  0  0  0  0  0999 V2000
   -5.0750    2.6800   15.6910 C   0  0  0  0  0  0  0  0  0  0  0  0
   -5.1060    0.0910   15.9930 N   0  0  0  0  0  0  0  0  0  0  0  0
   -7.2100    1.4060   16.5130 O   0  0  0  0  0  0  0  0  0  0  0  0
   -5.7980    1.3740   16.6360 S   0  0  0  0  0  0  0  0  0  0  0  0
   -3.6170    2.5500   15.4460 C   0  0  0  0  0  0  0  0  0  0  0  0
   -5.3030    1.5770   17.9740 O   0  0  0  0  0  0  0  0  0  0  0  0
   -2.9840    3.5100   14.7140 C   0  0  0  0  0  0  0  0  0  0  0  0
   -4.5980    6.9030   12.8100 O   0  0  0  0  0  0  0  0  0  0  0  0
   -3.7540    4.6400   14.1870 C   0  0  0  0  0  0  0  0  0  0  0  0
   -0.0880    9.6640   15.4990 O   0  0  0  0  0  0  0  0  0  0  0  0
   -5.1170    4.7650   14.3780 C   0  0  0  0  0  0  0  0  0  0  0  0
   -5.8110    3.7190   15.1860 C   0  0  0  0  0  0  0  0  0  0  0  0
   -3.4100    6.5970   12.6710 C   0  0  0  0  0  0  0  0  0  0  0  0
   -2.8850    5.5470   13.4810 N   0  0  0  0  0  0  0  0  0  0  0  0
   -2.3820    7.3990   11.8870 C   0  0  0  0  0  0  0  0  0  0  0  0
   -1.9770    8.6050   12.6850 C   0  0  0  0  0  0  0  0  0  0  0  0
   -1.2240    8.5340   13.8610 C   0  0  0  0  0  0  0  0  0  0  0  0
   -0.7760    9.7090   14.4830 C   0  0  0  0  0  0  0  0  0  0  0  0
   -1.0070   11.0000   14.0250 O   0  0  0  0  0  0  0  0  0  0  0  0
   -1.8970   11.0920   12.9230 C   0  0  0  0  0  0  0  0  0  0  0  0
   -2.3480   12.4460   12.5520 C   0  0  0  0  0  0  0  0  0  0  0  0
   -3.2370   12.6170   11.5220 C   0  0  0  0  0  0  0  0  0  0  0  0
   -3.8100   11.4060   10.8330 C   0  0  0  0  0  0  0  0  0  0  0  0
   -3.4090   10.1370   11.1830 C   0  0  0  0  0  0  0  0  0  0  0  0
   -2.4270    9.9600   12.2890 C   0  0  0  0  0  0  0  0  0  0  0  0
   -3.6180   13.9110   11.1190 O   0  0  0  0  0  0  0  0  0  0  0  0
   -2.7720   15.0800   11.2160 C   0  0  0  0  0  0  0  0  0  0  0  0
  4  1  1  0
  5  1  2  0
 12  1  1  0
  4  2  1  0
  4  3  2  0
  6  4  2  0
  7  5  1  0
  9  7  2  0
 13  8  2  0
 11  9  1  0
 14  9  1  0
 18 10  2  0
 12 11  2  0
 14 13  1  0
 15 13  1  0
 16 15  1  0
 17 16  2  0
 25 16  1  0
 18 17  1  0
 19 18  1  0
 20 19  1  0
 21 20  1  0
 25 20  2  0
 22 21  2  0
 23 22  1  0
 26 22  1  0
 24 23  2  0
 25 24  1  0
 27 26  1  0
A    1
C1
A    2
N1
A    3
O1
A    4
S1
A    5
C2
A    6
O2
A    7
C3
A    8
O3
A    9
C4
A   10
O4
A   11
C5
A   12
C6
A   13
C7
A   14
N7
A   15
C8
A   16
C9
A   17
C10
A   18
C11
A   19
O12
A   20
C13
A   21
C14
A   22
C15
A   23
C16
A   24
C17
A   25
C18
A   26
O19
A   27
C20
M  END
>  <Id>  (88) 
3ML2_SU0_A_263

>  <ChainId>  (88) 
A

>  <AsymId>  (88) 
C

>  <SeqNum>  (88) 
263

>  <Name>  (88) 
2-(7-methoxy-2-oxo-2H-chromen-4-yl)-N-(4-sulfamoylphenyl)acetamide

>  <SystematicName>  (88) 
2-(7-methoxy-2-oxo-chromen-4-yl)-N-(4-sulfamoylphenyl)ethanamide

>  <Synonyms>  (88) 


>  <Type>  (88) 
NON-POLYMER

>  <Formula>  (88) 
C18 H16 N2 O6 S

>  <ObservedFormula>  (88) 
C18 S N2 O6

>  <MolecularWeight>  (88) 
388.394

>  <ModifiedDate>  (88) 
2011-06-04

>  <Parent>  (88) 


>  <OneLetterCode>  (88) 


>  <SubcomponentList>  (88) 


>  <AmbiguousFlag>  (88) 
N

>  <InsertionCode>  (88) 


>  <InstanceId>  (88) 
3ML2_SU0_A_263

>  <ChemCompId>  (88) 
SU0

>  <PdbId>  (88) 
3ML2

>  <ResidueNumber>  (88) 
263

>  <InChI>  (88) 
InChI=1S/C18H16N2O6S/c1-25-13-4-7-15-11(9-18(22)26-16(15)10-13)8-17(21)20-12-2-5-14(6-3-12)27(19,23)24/h2-7,9-10H,8H2,1H3,(H,20,21)(H2,19,23,24)

>  <InChIKey>  (88) 
VZBSCWDKCMOJCR-UHFFFAOYSA-N

>  <SMILES>  (88) 
COc1ccc2c(c1)OC(=O)C=C2CC(=O)Nc3ccc(cc3)S(=O)(=O)N

>  <MissingHeavyAtoms>  (88) 
0

>  <Model>  (88) 
1

>  <AltIds>  (88) 


>  <pKI>  (88) 
8.05

>  <ChemblID>  (88) 
CHEMBL477822

>  <standardized_canonical_smiles>  (88) 
COc1ccc2c(CC(=O)Nc3ccc(S(N)(=O)=O)cc3)cc(=O)oc2c1

$$$$
3KWA_SPM_A_300
     RDKit          3D

 14 13  0  0  0  0  0  0  0  0999 V2000
   -6.0090    0.3650   17.8620 N   0  0  0  0  0  0  0  0  0  0  0  0
   -5.4920    1.7110   17.8750 C   0  0  0  0  0  0  0  0  0  0  0  0
   -6.6490    2.6550   17.6320 C   0  0  0  0  0  0  0  0  0  0  0  0
   -6.4610    3.4630   16.3440 C   0  0  0  0  0  0  0  0  0  0  0  0
   -5.9940    2.6970   15.2120 N   0  0  0  0  0  0  0  0  0  0  0  0
   -4.5760    2.3910   15.1380 C   0  0  0  0  0  0  0  0  0  0  0  0
   -4.1760    1.5000   13.9810 C   0  0  0  0  0  0  0  0  0  0  0  0
   -4.6120    2.2790   12.7530 C   0  0  0  0  0  0  0  0  0  0  0  0
   -5.2030    3.5720   13.2440 C   0  0  0  0  0  0  0  0  0  0  0  0
   -4.2130    4.3280   13.9730 N   0  0  0  0  0  0  0  0  0  0  0  0
   -4.4170    5.6670   14.4380 C   0  0  0  0  0  0  0  0  0  0  0  0
   -3.2020    6.1340   15.2130 C   0  0  0  0  0  0  0  0  0  0  0  0
   -1.8940    5.8300   14.4860 C   0  0  0  0  0  0  0  0  0  0  0  0
   -1.1910    4.7290   15.1110 N   0  0  0  0  0  0  0  0  0  0  0  0
  2  1  1  0
  3  2  1  0
  4  3  1  0
  5  4  1  0
  6  5  1  0
  7  6  1  0
  8  7  1  0
  9  8  1  0
 10  9  1  0
 11 10  1  0
 12 11  1  0
 13 12  1  0
 14 13  1  0
A    1
N1
A    2
C2
A    3
C3
A    4
C4
A    5
N5
A    6
C6
A    7
C7
A    8
C8
A    9
C9
A   10
N10
A   11
C11
A   12
C12
A   13
C13
A   14
N14
M  END
>  <Id>  (89) 
3KWA_SPM_A_300

>  <ChainId>  (89) 
A

>  <AsymId>  (89) 
D

>  <SeqNum>  (89) 
300

>  <Name>  (89) 
SPERMINE

>  <SystematicName>  (89) 
N,N'-bis(3-aminopropyl)butane-1,4-diamine

>  <Synonyms>  (89) 


>  <Type>  (89) 
NON-POLYMER

>  <Formula>  (89) 
C10 H26 N4

>  <ObservedFormula>  (89) 
C10 N4

>  <MolecularWeight>  (89) 
202.34

>  <ModifiedDate>  (89) 
2011-06-04

>  <Parent>  (89) 


>  <OneLetterCode>  (89) 


>  <SubcomponentList>  (89) 


>  <AmbiguousFlag>  (89) 
N

>  <InsertionCode>  (89) 


>  <InstanceId>  (89) 
3KWA_SPM_A_300

>  <ChemCompId>  (89) 
SPM

>  <PdbId>  (89) 
3KWA

>  <ResidueNumber>  (89) 
300

>  <InChI>  (89) 
InChI=1S/C10H26N4/c11-5-3-9-13-7-1-2-8-14-10-4-6-12/h13-14H,1-12H2

>  <InChIKey>  (89) 
PFNFFQXMRSDOHW-UHFFFAOYSA-N

>  <SMILES>  (89) 
C(CCNCCCN)CNCCCN

>  <MissingHeavyAtoms>  (89) 
0

>  <Model>  (89) 
1

>  <AltIds>  (89) 


>  <pKI>  (89) 
4.08

>  <ChemblID>  (89) 
CHEMBL23194

>  <standardized_canonical_smiles>  (89) 
NCCCNCCCCNCCCN

$$$$
5BNL_2HC_A_303
     RDKit          3D

 12 12  0  0  0  0  0  0  0  0999 V2000
   -4.2110    5.1370   10.3530 C   0  0  0  0  0  0  0  0  0  0  0  0
   -3.3970    4.1000   10.1150 C   0  0  0  0  0  0  0  0  0  0  0  0
   -3.3710    3.1510   10.9290 O   0  0  0  0  0  0  0  0  0  0  0  0
   -2.6850    4.1100    9.0870 O   0  0  0  0  0  0  0  0  0  0  0  0
   -4.2540    6.1570    9.5000 C   0  0  0  0  0  0  0  0  0  0  0  0
   -5.1540    7.3020    9.7620 C   0  0  0  0  0  0  0  0  0  0  0  0
   -5.1980    8.3680    8.8710 C   0  0  0  0  0  0  0  0  0  0  0  0
   -6.0430    9.4450    9.1160 C   0  0  0  0  0  0  0  0  0  0  0  0
   -6.8430    9.4530   10.2530 C   0  0  0  0  0  0  0  0  0  0  0  0
   -6.7960    8.3860   11.1420 C   0  0  0  0  0  0  0  0  0  0  0  0
   -5.9500    7.3110   10.8940 C   0  0  0  0  0  0  0  0  0  0  0  0
   -5.9090    6.3520   11.6940 O   0  0  0  0  0  0  0  0  0  0  0  0
  2  1  1  0
  5  1  2  0
  3  2  1  0
  4  2  2  0
  6  5  1  0
  7  6  2  0
 11  6  1  0
  8  7  1  0
  9  8  2  0
 10  9  1  0
 11 10  2  0
 12 11  1  0
A    1
CA
A    2
C
A    3
O
A    4
OXT
A    5
CB
A    6
CG
A    7
CD1
A    8
CE1
A    9
CZ
A   10
CE2
A   11
CD2
A   12
OH
M  END
>  <Id>  (90) 
5BNL_2HC_A_303

>  <ChainId>  (90) 
A

>  <AsymId>  (90) 
D

>  <SeqNum>  (90) 
303

>  <Name>  (90) 
(2E)-3-(2-HYDROXYPHENYL)ACRYLIC ACID

>  <SystematicName>  (90) 
(E)-3-(2-hydroxyphenyl)prop-2-enoic acid

>  <Synonyms>  (90) 
TRANS-2-HYDROXYCINNAMIC ACID; O-COUMARIC ACID

>  <Type>  (90) 
NON-POLYMER

>  <Formula>  (90) 
C9 H8 O3

>  <ObservedFormula>  (90) 
C9 O3

>  <MolecularWeight>  (90) 
164.158

>  <ModifiedDate>  (90) 
2011-06-04

>  <Parent>  (90) 


>  <OneLetterCode>  (90) 


>  <SubcomponentList>  (90) 


>  <AmbiguousFlag>  (90) 
N

>  <InsertionCode>  (90) 


>  <InstanceId>  (90) 
5BNL_2HC_A_303

>  <ChemCompId>  (90) 
2HC

>  <PdbId>  (90) 
5BNL

>  <ResidueNumber>  (90) 
303

>  <InChI>  (90) 
InChI=1S/C9H8O3/c10-8-4-2-1-3-7(8)5-6-9(11)12/h1-6,10H,(H,11,12)/b6-5+

>  <InChIKey>  (90) 
PMOWTIHVNWZYFI-AATRIKPKSA-N

>  <SMILES>  (90) 
c1ccc(c(c1)\C=C\C(=O)O)O

>  <MissingHeavyAtoms>  (90) 
0

>  <Model>  (90) 
1

>  <AltIds>  (90) 


>  <pKI>  (90) 
5.04

>  <ChemblID>  (90) 
CHEMBL52564

>  <standardized_canonical_smiles>  (90) 
O=C(O)/C=C/c1ccccc1O

$$$$
3N3J_WWV_A_263
     RDKit          3D

 23 24  0  0  0  0  0  0  0  0999 V2000
   -5.0880    2.1690   15.6700 C   0  0  0  0  0  0  0  0  0  0  0  0
   -5.4980   -0.4460   16.0270 N   0  0  0  0  0  0  0  0  0  0  0  0
   -7.3660    1.2150   16.5180 O   0  0  0  0  0  0  0  0  0  0  0  0
   -5.8960    0.9650   16.6410 S   0  0  0  0  0  0  0  0  0  0  0  0
   -5.7990    3.2670   15.1410 C   0  0  0  0  0  0  0  0  0  0  0  0
   -5.4030    1.0890   18.0710 O   0  0  0  0  0  0  0  0  0  0  0  0
   -5.1360    4.2520   14.3890 C   0  0  0  0  0  0  0  0  0  0  0  0
   -3.7490    4.1260   14.2030 C   0  0  0  0  0  0  0  0  0  0  0  0
   -3.0540    3.0380   14.7230 C   0  0  0  0  0  0  0  0  0  0  0  0
   -3.7050    2.0600   15.4760 C   0  0  0  0  0  0  0  0  0  0  0  0
   -2.9170    5.0450   13.4940 N   0  0  0  0  0  0  0  0  0  0  0  0
   -3.2770    6.2130   12.9800 C   0  0  0  0  0  0  0  0  0  0  0  0
   -4.4530    6.5730   12.9330 O   0  0  0  0  0  0  0  0  0  0  0  0
   -2.2520    6.9240   12.4670 N   0  0  0  0  0  0  0  0  0  0  0  0
   -2.4220    8.2090   11.9720 C   0  0  0  0  0  0  0  0  0  0  0  0
   -1.8080    9.2710   12.6480 C   0  0  0  0  0  0  0  0  0  0  0  0
   -1.9760   10.5720   12.1720 C   0  0  0  0  0  0  0  0  0  0  0  0
   -2.7370   10.7960   11.0150 C   0  0  0  0  0  0  0  0  0  0  0  0
   -3.3530    9.7290   10.3500 C   0  0  0  0  0  0  0  0  0  0  0  0
   -3.2000    8.4250   10.8280 C   0  0  0  0  0  0  0  0  0  0  0  0
   -0.9670    9.0060   13.9320 C   0  0  0  0  0  0  0  0  0  0  0  0
    0.0480   10.1280   14.2090 C   0  0  0  0  0  0  0  0  0  0  0  0
   -1.8220    8.7470   15.1880 C   0  0  0  0  0  0  0  0  0  0  0  0
  4  1  1  0
  5  1  2  0
 10  1  1  0
  4  2  1  0
  4  3  2  0
  6  4  2  0
  7  5  1  0
  8  7  2  0
  9  8  1  0
 11  8  1  0
 10  9  2  0
 12 11  1  0
 13 12  2  0
 14 12  1  0
 15 14  1  0
 16 15  2  0
 20 15  1  0
 17 16  1  0
 21 16  1  0
 18 17  2  0
 19 18  1  0
 20 19  2  0
 22 21  1  0
 23 21  1  0
A    1
C1
A    2
N1
A    3
O1
A    4
S1
A    5
C2
A    6
O2
A    7
C3
A    8
C4
A    9
C5
A   10
C6
A   11
N7
A   12
C8
A   13
O8
A   14
N9
A   15
C10
A   16
C11
A   17
C12
A   18
C13
A   19
C14
A   20
C15
A   21
C16
A   22
C17
A   23
C18
M  END
>  <Id>  (91) 
3N3J_WWV_A_263

>  <ChainId>  (91) 
A

>  <AsymId>  (91) 
D

>  <SeqNum>  (91) 
263

>  <Name>  (91) 
4-({[2-(1-methylethyl)phenyl]carbamoyl}amino)benzenesulfonamide

>  <SystematicName>  (91) 
1-(2-propan-2-ylphenyl)-3-(4-sulfamoylphenyl)urea

>  <Synonyms>  (91) 


>  <Type>  (91) 
NON-POLYMER

>  <Formula>  (91) 
C16 H19 N3 O3 S

>  <ObservedFormula>  (91) 
C16 S N3 O3

>  <MolecularWeight>  (91) 
333.405

>  <ModifiedDate>  (91) 
2011-06-04

>  <Parent>  (91) 


>  <OneLetterCode>  (91) 


>  <SubcomponentList>  (91) 


>  <AmbiguousFlag>  (91) 
N

>  <InsertionCode>  (91) 


>  <InstanceId>  (91) 
3N3J_WWV_A_263

>  <ChemCompId>  (91) 
WWV

>  <PdbId>  (91) 
3N3J

>  <ResidueNumber>  (91) 
263

>  <InChI>  (91) 
InChI=1S/C16H19N3O3S/c1-11(2)14-5-3-4-6-15(14)19-16(20)18-12-7-9-13(10-8-12)23(17,21)22/h3-11H,1-2H3,(H2,17,21,22)(H2,18,19,20)

>  <InChIKey>  (91) 
NCAVVYYIUQIEED-UHFFFAOYSA-N

>  <SMILES>  (91) 
CC(C)c1ccccc1NC(=O)Nc2ccc(cc2)S(=O)(=O)N

>  <MissingHeavyAtoms>  (91) 
0

>  <Model>  (91) 
1

>  <AltIds>  (91) 


>  <pKI>  (91) 
8.48

>  <ChemblID>  (91) 
CHEMBL1615280

>  <standardized_canonical_smiles>  (91) 
CC(C)c1ccccc1NC(=O)Nc1ccc(S(N)(=O)=O)cc1

$$$$
5JMZ_AYX_A_303
     RDKit          3D

 23 24  0  0  0  0  0  0  0  0999 V2000
   -1.2190    3.9830   86.0920 C   0  0  0  0  0  0  0  0  0  0  0  0
   -1.1510    1.1260   86.0110 N   0  0  0  0  0  0  0  0  0  0  0  0
   -1.2450    2.3580   88.4100 O   0  0  0  0  0  0  0  0  0  0  0  0
   -1.7720    2.4210   86.8550 S   0  0  0  0  0  0  0  0  0  0  0  0
    0.1090    4.1470   85.7590 C   0  0  0  0  0  0  0  0  0  0  0  0
   -3.5100    2.3570   86.8310 O   0  0  0  0  0  0  0  0  0  0  0  0
    0.5390    5.3340   85.1800 C   0  0  0  0  0  0  0  0  0  0  0  0
   -0.3550    6.3430   84.9370 C   0  0  0  0  0  0  0  0  0  0  0  0
   -1.6890    6.1770   85.2750 C   0  0  0  0  0  0  0  0  0  0  0  0
   -2.1110    4.9840   85.8550 C   0  0  0  0  0  0  0  0  0  0  0  0
    0.1160    7.5860   84.3310 N   0  0  0  0  0  0  0  0  0  0  0  0
   -0.6830    8.3520   83.3830 C   0  0  0  0  0  0  0  0  0  0  0  0
   -1.7660    7.9870   83.0610 O   0  0  0  0  0  0  0  0  0  0  0  0
   -0.1060    9.6190   82.8180 N   0  0  0  0  0  0  0  0  0  0  0  0
   -0.8340   10.4330   81.8670 C   0  0  0  0  0  0  0  0  0  0  0  0
   -1.6910    9.8410   80.9490 C   0  0  0  0  0  0  0  0  0  0  0  0
   -2.3910   10.6420   80.0220 C   0  0  0  0  0  0  0  0  0  0  0  0
   -2.2230   11.9990   80.0240 C   0  0  0  0  0  0  0  0  0  0  0  0
   -1.3580   12.5940   80.9440 C   0  0  0  0  0  0  0  0  0  0  0  0
   -0.6610   11.7980   81.8670 C   0  0  0  0  0  0  0  0  0  0  0  0
   -3.2880   10.0330   79.0650 N   0  0  0  0  0  0  0  0  0  0  0  0
   -3.9030    8.8030   79.3630 O   0  0  0  0  0  0  0  0  0  0  0  0
   -3.5490   10.6860   77.8080 O   0  0  0  0  0  0  0  0  0  0  0  0
  4  1  1  0
  5  1  2  0
 10  1  1  0
  4  2  1  0
  4  3  2  0
  6  4  2  0
  7  5  1  0
  8  7  2  0
  9  8  1  0
 11  8  1  0
 10  9  2  0
 12 11  1  0
 13 12  2  0
 14 12  1  0
 15 14  1  0
 16 15  2  0
 20 15  1  0
 17 16  1  0
 18 17  2  0
 21 17  1  0
 19 18  1  0
 20 19  2  0
 22 21  2  0
 23 21  1  0
M  CHG  2  21   1  23  -1
A    1
C1
A    2
N1
A    3
O1
A    4
S1
A    5
C2
A    6
O2
A    7
C3
A    8
C4
A    9
C5
A   10
C6
A   11
N7
A   12
C8
A   13
O8
A   14
N9
A   15
C10
A   16
C11
A   17
C12
A   18
C13
A   19
C14
A   20
C15
A   21
N16
A   22
O16
A   23
O17
M  END
>  <Id>  (92) 
5JMZ_AYX_A_303

>  <ChainId>  (92) 
A

>  <AsymId>  (92) 
D

>  <SeqNum>  (92) 
303

>  <Name>  (92) 
4-{[(3-nitrophenyl)carbamoyl]amino}benzenesulfonamide

>  <SystematicName>  (92) 
1-(3-nitrophenyl)-3-(4-sulfamoylphenyl)urea

>  <Synonyms>  (92) 


>  <Type>  (92) 
NON-POLYMER

>  <Formula>  (92) 
C13 H12 N4 O5 S

>  <ObservedFormula>  (92) 
C13 S N4 O5

>  <MolecularWeight>  (92) 
336.323

>  <ModifiedDate>  (92) 
2011-06-04

>  <Parent>  (92) 


>  <OneLetterCode>  (92) 


>  <SubcomponentList>  (92) 


>  <AmbiguousFlag>  (92) 
N

>  <InsertionCode>  (92) 


>  <InstanceId>  (92) 
5JMZ_AYX_A_303

>  <ChemCompId>  (92) 
AYX

>  <PdbId>  (92) 
5JMZ

>  <ResidueNumber>  (92) 
303

>  <InChI>  (92) 
InChI=1S/C13H12N4O5S/c14-23(21,22)12-6-4-9(5-7-12)15-13(18)16-10-2-1-3-11(8-10)17(19)20/h1-8H,(H2,14,21,22)(H2,15,16,18)

>  <InChIKey>  (92) 
MTGVDZIMBQRGPD-UHFFFAOYSA-N

>  <SMILES>  (92) 
c1cc(cc(c1)[N+](=O)[O-])NC(=O)Nc2ccc(cc2)S(=O)(=O)N

>  <MissingHeavyAtoms>  (92) 
0

>  <Model>  (92) 
1

>  <AltIds>  (92) 


>  <pKI>  (92) 
7.82

>  <ChemblID>  (92) 
CHEMBL1614844

>  <standardized_canonical_smiles>  (92) 
NS(=O)(=O)c1ccc(NC(=O)Nc2cccc([N+](=O)[O-])c2)cc1

$$$$
3N2P_AYX_A_263
     RDKit          3D

 23 24  0  0  0  0  0  0  0  0999 V2000
   -5.4610    2.3780   15.8890 C   0  0  0  0  0  0  0  0  0  0  0  0
   -5.3270   -0.3280   16.1250 N   0  0  0  0  0  0  0  0  0  0  0  0
   -7.3870    0.9760   16.7930 O   0  0  0  0  0  0  0  0  0  0  0  0
   -5.9410    0.9640   16.8390 S   0  0  0  0  0  0  0  0  0  0  0  0
   -4.1630    2.4900   15.4090 C   0  0  0  0  0  0  0  0  0  0  0  0
   -5.3590    1.0960   18.1770 O   0  0  0  0  0  0  0  0  0  0  0  0
   -3.8120    3.5980   14.6450 C   0  0  0  0  0  0  0  0  0  0  0  0
   -4.7720    4.5670   14.4060 C   0  0  0  0  0  0  0  0  0  0  0  0
   -6.0650    4.4680   14.8770 C   0  0  0  0  0  0  0  0  0  0  0  0
   -6.4130    3.3530   15.6390 C   0  0  0  0  0  0  0  0  0  0  0  0
   -4.3580    5.6910   13.5850 N   0  0  0  0  0  0  0  0  0  0  0  0
   -5.2390    6.3380   12.6440 C   0  0  0  0  0  0  0  0  0  0  0  0
   -6.4510    6.1820   12.5680 O   0  0  0  0  0  0  0  0  0  0  0  0
   -4.6130    7.4150   11.9430 N   0  0  0  0  0  0  0  0  0  0  0  0
   -5.1860    8.3130   10.9980 C   0  0  0  0  0  0  0  0  0  0  0  0
   -6.3740    7.9840   10.3530 C   0  0  0  0  0  0  0  0  0  0  0  0
   -6.8900    8.8770    9.4080 C   0  0  0  0  0  0  0  0  0  0  0  0
   -6.2520   10.0770    9.1560 C   0  0  0  0  0  0  0  0  0  0  0  0
   -5.0540   10.3820    9.8010 C   0  0  0  0  0  0  0  0  0  0  0  0
   -4.5210    9.5020   10.7460 C   0  0  0  0  0  0  0  0  0  0  0  0
   -8.1120    8.5820    8.7350 N   0  0  0  0  0  0  0  0  0  0  0  0
   -8.6190    9.4650    7.9200 O   0  0  0  0  0  0  0  0  0  0  0  0
   -8.6660    7.4290    8.8750 O   0  0  0  0  0  0  0  0  0  0  0  0
  4  1  1  0
  5  1  2  0
 10  1  1  0
  4  2  1  0
  4  3  2  0
  6  4  2  0
  7  5  1  0
  8  7  2  0
  9  8  1  0
 11  8  1  0
 10  9  2  0
 12 11  1  0
 13 12  2  0
 14 12  1  0
 15 14  1  0
 16 15  2  0
 20 15  1  0
 17 16  1  0
 18 17  2  0
 21 17  1  0
 19 18  1  0
 20 19  2  0
 22 21  2  0
 23 21  1  0
M  CHG  2  21   1  23  -1
A    1
C1
A    2
N1
A    3
O1
A    4
S1
A    5
C2
A    6
O2
A    7
C3
A    8
C4
A    9
C5
A   10
C6
A   11
N7
A   12
C8
A   13
O8
A   14
N9
A   15
C10
A   16
C11
A   17
C12
A   18
C13
A   19
C14
A   20
C15
A   21
N16
A   22
O16
A   23
O17
M  END
>  <Id>  (93) 
3N2P_AYX_A_263

>  <ChainId>  (93) 
A

>  <AsymId>  (93) 
C

>  <SeqNum>  (93) 
263

>  <Name>  (93) 
4-{[(3-nitrophenyl)carbamoyl]amino}benzenesulfonamide

>  <SystematicName>  (93) 
1-(3-nitrophenyl)-3-(4-sulfamoylphenyl)urea

>  <Synonyms>  (93) 


>  <Type>  (93) 
NON-POLYMER

>  <Formula>  (93) 
C13 H12 N4 O5 S

>  <ObservedFormula>  (93) 
C13 S N4 O5

>  <MolecularWeight>  (93) 
336.323

>  <ModifiedDate>  (93) 
2011-06-04

>  <Parent>  (93) 


>  <OneLetterCode>  (93) 


>  <SubcomponentList>  (93) 


>  <AmbiguousFlag>  (93) 
N

>  <InsertionCode>  (93) 


>  <InstanceId>  (93) 
3N2P_AYX_A_263

>  <ChemCompId>  (93) 
AYX

>  <PdbId>  (93) 
3N2P

>  <ResidueNumber>  (93) 
263

>  <InChI>  (93) 
InChI=1S/C13H12N4O5S/c14-23(21,22)12-6-4-9(5-7-12)15-13(18)16-10-2-1-3-11(8-10)17(19)20/h1-8H,(H2,14,21,22)(H2,15,16,18)

>  <InChIKey>  (93) 
MTGVDZIMBQRGPD-UHFFFAOYSA-N

>  <SMILES>  (93) 
c1cc(cc(c1)[N+](=O)[O-])NC(=O)Nc2ccc(cc2)S(=O)(=O)N

>  <MissingHeavyAtoms>  (93) 
0

>  <Model>  (93) 
1

>  <AltIds>  (93) 


>  <pKI>  (93) 
7.82

>  <ChemblID>  (93) 
CHEMBL1614844

>  <standardized_canonical_smiles>  (93) 
NS(=O)(=O)c1ccc(NC(=O)Nc2cccc([N+](=O)[O-])c2)cc1

$$$$
3MZC_S6I_A_263
     RDKit          3D

 19 20  0  0  0  0  0  0  0  0999 V2000
   -5.0690    2.2280   15.7970 C   0  0  0  0  0  0  0  0  0  0  0  0
   -5.3850   -0.4900   16.1470 N   0  0  0  0  0  0  0  0  0  0  0  0
   -7.3100    1.1610   16.6550 O   0  0  0  0  0  0  0  0  0  0  0  0
   -5.8620    0.9760   16.7700 S   0  0  0  0  0  0  0  0  0  0  0  0
   -5.7650    3.3080   15.3320 C   0  0  0  0  0  0  0  0  0  0  0  0
   -5.3530    1.1050   18.1370 O   0  0  0  0  0  0  0  0  0  0  0  0
   -5.1270    4.2980   14.6120 C   0  0  0  0  0  0  0  0  0  0  0  0
   -3.7750    4.1690   14.3490 C   0  0  0  0  0  0  0  0  0  0  0  0
   -3.0900    3.1030   14.8080 C   0  0  0  0  0  0  0  0  0  0  0  0
   -3.7020    2.1450   15.5090 C   0  0  0  0  0  0  0  0  0  0  0  0
   -2.9260    5.1230   13.6770 N   0  0  0  0  0  0  0  0  0  0  0  0
   -3.2450    6.4550   13.3690 C   0  0  0  0  0  0  0  0  0  0  0  0
   -4.3040    6.9340   13.6480 O   0  0  0  0  0  0  0  0  0  0  0  0
   -2.0960    7.2070   12.9610 N   0  0  0  0  0  0  0  0  0  0  0  0
   -2.1060    8.5580   12.8950 C   0  0  0  0  0  0  0  0  0  0  0  0
   -2.1230    9.0870   14.2700 C   0  0  0  0  0  0  0  0  0  0  0  0
   -0.7180    9.1120   14.7700 C   0  0  0  0  0  0  0  0  0  0  0  0
    0.1500    9.0570   13.5390 C   0  0  0  0  0  0  0  0  0  0  0  0
   -0.7970    9.0040   12.3390 C   0  0  0  0  0  0  0  0  0  0  0  0
  4  1  1  0
  5  1  2  0
 10  1  1  0
  4  2  1  0
  4  3  2  0
  6  4  2  0
  7  5  1  0
  8  7  2  0
  9  8  1  0
 11  8  1  0
 10  9  2  0
 12 11  1  0
 13 12  2  0
 14 12  1  0
 15 14  1  0
 16 15  1  0
 19 15  1  0
 17 16  1  0
 18 17  1  0
 19 18  1  0
A    1
C1
A    2
N1
A    3
O1
A    4
S1
A    5
C2
A    6
O2
A    7
C3
A    8
C4
A    9
C5
A   10
C6
A   11
N7
A   12
C8
A   13
O8
A   14
N9
A   15
C10
A   16
C11
A   17
C12
A   18
C13
A   19
C14
M  END
>  <Id>  (94) 
3MZC_S6I_A_263

>  <ChainId>  (94) 
A

>  <AsymId>  (94) 
C

>  <SeqNum>  (94) 
263

>  <Name>  (94) 
4-[(cyclopentylcarbamoyl)amino]benzenesulfonamide

>  <SystematicName>  (94) 
1-cyclopentyl-3-(4-sulfamoylphenyl)urea

>  <Synonyms>  (94) 


>  <Type>  (94) 
NON-POLYMER

>  <Formula>  (94) 
C12 H17 N3 O3 S

>  <ObservedFormula>  (94) 
C12 S N3 O3

>  <MolecularWeight>  (94) 
283.347

>  <ModifiedDate>  (94) 
2011-06-04

>  <Parent>  (94) 


>  <OneLetterCode>  (94) 


>  <SubcomponentList>  (94) 


>  <AmbiguousFlag>  (94) 
N

>  <InsertionCode>  (94) 


>  <InstanceId>  (94) 
3MZC_S6I_A_263

>  <ChemCompId>  (94) 
S6I

>  <PdbId>  (94) 
3MZC

>  <ResidueNumber>  (94) 
263

>  <InChI>  (94) 
InChI=1S/C12H17N3O3S/c13-19(17,18)11-7-5-10(6-8-11)15-12(16)14-9-3-1-2-4-9/h5-9H,1-4H2,(H2,13,17,18)(H2,14,15,16)

>  <InChIKey>  (94) 
QRZYENXYGGOPSS-UHFFFAOYSA-N

>  <SMILES>  (94) 
c1cc(ccc1NC(=O)NC2CCCC2)S(=O)(=O)N

>  <MissingHeavyAtoms>  (94) 
0

>  <Model>  (94) 
1

>  <AltIds>  (94) 


>  <pKI>  (94) 
6.65

>  <ChemblID>  (94) 
CHEMBL1615215

>  <standardized_canonical_smiles>  (94) 
NS(=O)(=O)c1ccc(NC(=O)NC2CCCC2)cc1

$$$$
5JN1_6LU_A_302
     RDKit          3D

 22 23  0  0  0  0  0  0  0  0999 V2000
    1.2120   11.5340   83.5400 C   0  0  0  0  0  0  0  0  0  0  0  0
    1.5840   10.3710   82.6250 C   0  0  0  0  0  0  0  0  0  0  0  0
    1.5060    9.0730   83.1050 C   0  0  0  0  0  0  0  0  0  0  0  0
    2.0000   10.6070   81.3190 C   0  0  0  0  0  0  0  0  0  0  0  0
    2.3350    9.5420   80.4890 C   0  0  0  0  0  0  0  0  0  0  0  0
    2.7940    9.7720   79.0530 C   0  0  0  0  0  0  0  0  0  0  0  0
    2.2570    8.2490   80.9690 C   0  0  0  0  0  0  0  0  0  0  0  0
    1.8370    8.0250   82.2660 C   0  0  0  0  0  0  0  0  0  0  0  0
    1.7720    6.6710   82.7370 N   0  0  0  0  0  0  0  0  0  0  0  0
    0.5950    6.0950   83.3460 C   0  0  0  0  0  0  0  0  0  0  0  0
   -0.4130    6.6840   83.5120 O   0  0  0  0  0  0  0  0  0  0  0  0
    0.7460    4.7190   83.7160 N   0  0  0  0  0  0  0  0  0  0  0  0
   -0.2090    3.8660   84.3750 C   0  0  0  0  0  0  0  0  0  0  0  0
   -1.5850    4.0630   84.5360 C   0  0  0  0  0  0  0  0  0  0  0  0
   -2.3120    3.0880   85.2380 C   0  0  0  0  0  0  0  0  0  0  0  0
   -1.6040    1.9870   85.7440 C   0  0  0  0  0  0  0  0  0  0  0  0
   -2.3530    0.6360   86.6730 S   0  0  0  0  0  0  0  0  0  0  0  0
   -1.7890    0.7410   88.1840 O   0  0  0  0  0  0  0  0  0  0  0  0
   -3.9800    0.7700   86.5400 O   0  0  0  0  0  0  0  0  0  0  0  0
   -1.8610   -0.7830   86.0070 N   0  0  0  0  0  0  0  0  0  0  0  0
   -0.2580    1.8330   85.5650 C   0  0  0  0  0  0  0  0  0  0  0  0
    0.4390    2.7780   84.8810 C   0  0  0  0  0  0  0  0  0  0  0  0
  2  1  1  0
  3  2  2  0
  4  2  1  0
  8  3  1  0
  5  4  2  0
  6  5  1  0
  7  5  1  0
  8  7  2  0
  9  8  1  0
 10  9  1  0
 11 10  2  0
 12 10  1  0
 13 12  1  0
 14 13  2  0
 22 13  1  0
 15 14  1  0
 16 15  2  0
 17 16  1  0
 21 16  1  0
 18 17  2  0
 19 17  2  0
 20 17  1  0
 22 21  2  0
A    1
CAR
A    2
CAN
A    3
CAO
A    4
CAM
A    5
CAL
A    6
CAS
A    7
CAK
A    8
CAJ
A    9
NAI
A   10
CAH
A   11
OAP
A   12
NAG
A   13
CAF
A   14
CAE
A   15
CAD
A   16
CAC
A   17
SAQ
A   18
OAT
A   19
OAU
A   20
NAV
A   21
CAB
A   22
CAA
M  END
>  <Id>  (95) 
5JN1_6LU_A_302

>  <ChainId>  (95) 
A

>  <AsymId>  (95) 
C

>  <SeqNum>  (95) 
302

>  <Name>  (95) 
4-{[(3,5-dimethylphenyl)carbamoyl]amino}benzene-1-sulfonamide

>  <SystematicName>  (95) 
1-(3,5-dimethylphenyl)-3-(4-sulfamoylphenyl)urea

>  <Synonyms>  (95) 


>  <Type>  (95) 
NON-POLYMER

>  <Formula>  (95) 
C15 H17 N3 O3 S

>  <ObservedFormula>  (95) 
C15 S N3 O3

>  <MolecularWeight>  (95) 
319.379

>  <ModifiedDate>  (95) 
2017-04-28

>  <Parent>  (95) 


>  <OneLetterCode>  (95) 


>  <SubcomponentList>  (95) 


>  <AmbiguousFlag>  (95) 
N

>  <InsertionCode>  (95) 


>  <InstanceId>  (95) 
5JN1_6LU_A_302

>  <ChemCompId>  (95) 
6LU

>  <PdbId>  (95) 
5JN1

>  <ResidueNumber>  (95) 
302

>  <InChI>  (95) 
InChI=1S/C15H17N3O3S/c1-10-7-11(2)9-13(8-10)18-15(19)17-12-3-5-14(6-4-12)22(16,20)21/h3-9H,1-2H3,(H2,16,20,21)(H2,17,18,19)

>  <InChIKey>  (95) 
SPEYBQKWONGMOH-UHFFFAOYSA-N

>  <SMILES>  (95) 
Cc1cc(cc(c1)NC(=O)Nc2ccc(cc2)S(=O)(=O)N)C

>  <MissingHeavyAtoms>  (95) 
0

>  <Model>  (95) 
1

>  <AltIds>  (95) 


>  <pKI>  (95) 
5.75

>  <ChemblID>  (95) 
CHEMBL1643306

>  <standardized_canonical_smiles>  (95) 
Cc1cc(C)cc(NC(=O)Nc2ccc(S(N)(=O)=O)cc2)c1

$$$$
5JN7_6LU_A_302
     RDKit          3D

 22 23  0  0  0  0  0  0  0  0999 V2000
    1.2120   11.5340   83.5400 C   0  0  0  0  0  0  0  0  0  0  0  0
    1.5840   10.3710   82.6250 C   0  0  0  0  0  0  0  0  0  0  0  0
    1.5060    9.0730   83.1050 C   0  0  0  0  0  0  0  0  0  0  0  0
    2.0000   10.6070   81.3190 C   0  0  0  0  0  0  0  0  0  0  0  0
    2.3350    9.5420   80.4890 C   0  0  0  0  0  0  0  0  0  0  0  0
    2.7940    9.7720   79.0530 C   0  0  0  0  0  0  0  0  0  0  0  0
    2.2570    8.2490   80.9690 C   0  0  0  0  0  0  0  0  0  0  0  0
    1.8370    8.0250   82.2660 C   0  0  0  0  0  0  0  0  0  0  0  0
    1.7720    6.6710   82.7370 N   0  0  0  0  0  0  0  0  0  0  0  0
    0.5950    6.0950   83.3460 C   0  0  0  0  0  0  0  0  0  0  0  0
   -0.4130    6.6840   83.5120 O   0  0  0  0  0  0  0  0  0  0  0  0
    0.7460    4.7190   83.7160 N   0  0  0  0  0  0  0  0  0  0  0  0
   -0.2090    3.8660   84.3750 C   0  0  0  0  0  0  0  0  0  0  0  0
   -1.5850    4.0630   84.5360 C   0  0  0  0  0  0  0  0  0  0  0  0
   -2.3120    3.0880   85.2380 C   0  0  0  0  0  0  0  0  0  0  0  0
   -1.6040    1.9870   85.7440 C   0  0  0  0  0  0  0  0  0  0  0  0
   -2.3530    0.6360   86.6730 S   0  0  0  0  0  0  0  0  0  0  0  0
   -1.7890    0.7410   88.1840 O   0  0  0  0  0  0  0  0  0  0  0  0
   -3.9800    0.7700   86.5400 O   0  0  0  0  0  0  0  0  0  0  0  0
   -1.8610   -0.7830   86.0070 N   0  0  0  0  0  0  0  0  0  0  0  0
   -0.2580    1.8330   85.5650 C   0  0  0  0  0  0  0  0  0  0  0  0
    0.4390    2.7780   84.8810 C   0  0  0  0  0  0  0  0  0  0  0  0
  2  1  1  0
  3  2  2  0
  4  2  1  0
  8  3  1  0
  5  4  2  0
  6  5  1  0
  7  5  1  0
  8  7  2  0
  9  8  1  0
 10  9  1  0
 11 10  2  0
 12 10  1  0
 13 12  1  0
 14 13  2  0
 22 13  1  0
 15 14  1  0
 16 15  2  0
 17 16  1  0
 21 16  1  0
 18 17  2  0
 19 17  2  0
 20 17  1  0
 22 21  2  0
A    1
CAR
A    2
CAN
A    3
CAO
A    4
CAM
A    5
CAL
A    6
CAS
A    7
CAK
A    8
CAJ
A    9
NAI
A   10
CAH
A   11
OAP
A   12
NAG
A   13
CAF
A   14
CAE
A   15
CAD
A   16
CAC
A   17
SAQ
A   18
OAT
A   19
OAU
A   20
NAV
A   21
CAB
A   22
CAA
M  END
>  <Id>  (96) 
5JN7_6LU_A_302

>  <ChainId>  (96) 
A

>  <AsymId>  (96) 
C

>  <SeqNum>  (96) 
302

>  <Name>  (96) 
4-{[(3,5-dimethylphenyl)carbamoyl]amino}benzene-1-sulfonamide

>  <SystematicName>  (96) 
1-(3,5-dimethylphenyl)-3-(4-sulfamoylphenyl)urea

>  <Synonyms>  (96) 


>  <Type>  (96) 
NON-POLYMER

>  <Formula>  (96) 
C15 H17 N3 O3 S

>  <ObservedFormula>  (96) 
C15 S N3 O3

>  <MolecularWeight>  (96) 
319.379

>  <ModifiedDate>  (96) 
2017-04-28

>  <Parent>  (96) 


>  <OneLetterCode>  (96) 


>  <SubcomponentList>  (96) 


>  <AmbiguousFlag>  (96) 
N

>  <InsertionCode>  (96) 


>  <InstanceId>  (96) 
5JN7_6LU_A_302

>  <ChemCompId>  (96) 
6LU

>  <PdbId>  (96) 
5JN7

>  <ResidueNumber>  (96) 
302

>  <InChI>  (96) 
InChI=1S/C15H17N3O3S/c1-10-7-11(2)9-13(8-10)18-15(19)17-12-3-5-14(6-4-12)22(16,20)21/h3-9H,1-2H3,(H2,16,20,21)(H2,17,18,19)

>  <InChIKey>  (96) 
SPEYBQKWONGMOH-UHFFFAOYSA-N

>  <SMILES>  (96) 
Cc1cc(cc(c1)NC(=O)Nc2ccc(cc2)S(=O)(=O)N)C

>  <MissingHeavyAtoms>  (96) 
0

>  <Model>  (96) 
1

>  <AltIds>  (96) 


>  <pKI>  (96) 
5.75

>  <ChemblID>  (96) 
CHEMBL1643306

>  <standardized_canonical_smiles>  (96) 
Cc1cc(C)cc(NC(=O)Nc2ccc(S(N)(=O)=O)cc2)c1

$$$$
3NI5_C1H_A_264
     RDKit          3D

 30 31  0  0  0  0  0  0  0  0999 V2000
    4.0640    9.9060   11.7140 O   0  0  0  0  0  0  0  0  0  0  0  0
    3.0920    9.3570   12.5580 N   0  0  0  0  0  0  0  0  0  0  0  0
   -2.9470    9.1130    8.2640 O   0  0  0  0  0  0  0  0  0  0  0  0
   -6.5740    5.2820   12.7820 O   0  0  0  0  0  0  0  0  0  0  0  0
    2.0860    8.6000   12.0180 O   0  0  0  0  0  0  0  0  0  0  0  0
    1.0010    8.0460   12.7800 C   0  0  0  0  0  0  0  0  0  0  0  0
   -0.0090    9.1060   13.2270 C   0  0  0  0  0  0  0  0  0  0  0  0
   -1.2860    9.0800   12.3900 C   0  0  0  0  0  0  0  0  0  0  0  0
   -1.0090    9.2470   10.8910 C   0  0  0  0  0  0  0  0  0  0  0  0
   -2.0820    9.9450   10.2570 O   0  0  0  0  0  0  0  0  0  0  0  0
   -3.0980    9.2360    9.4760 C   0  0  0  0  0  0  0  0  0  0  0  0
   -4.3300    8.6600   10.1360 C   0  0  0  0  0  0  0  0  0  0  0  0
   -4.2130    7.6810   11.1460 C   0  0  0  0  0  0  0  0  0  0  0  0
   -5.3540    7.1230   11.7410 C   0  0  0  0  0  0  0  0  0  0  0  0
   -5.3510    6.0170   12.9260 S   0  0  0  0  0  0  0  0  0  0  0  0
   -4.1910    5.0330   13.1930 N   0  0  0  0  0  0  0  0  0  0  0  0
   -4.3150    3.9260   14.0450 C   0  0  0  0  0  0  0  0  0  0  0  0
   -3.3090    3.0360   14.3480 N   0  0  0  0  0  0  0  0  0  0  0  0
   -3.7040    1.9880   15.2520 N   0  0  0  0  0  0  0  0  0  0  0  0
   -5.3160    1.0230   18.1240 O   0  0  0  0  0  0  0  0  0  0  0  0
   -5.5950    9.0980    9.7130 C   0  0  0  0  0  0  0  0  0  0  0  0
   -6.7400    8.5660   10.2950 C   0  0  0  0  0  0  0  0  0  0  0  0
   -6.6040    7.6050   11.3040 C   0  0  0  0  0  0  0  0  0  0  0  0
   -5.4790    6.7900   14.1280 O   0  0  0  0  0  0  0  0  0  0  0  0
   -5.7530    3.4660   14.8880 S   0  0  0  0  0  0  0  0  0  0  0  0
   -5.0120    2.1020   15.6590 C   0  0  0  0  0  0  0  0  0  0  0  0
   -5.8430    1.0660   16.7120 S   0  0  0  0  0  0  0  0  0  0  0  0
   -5.7120   -0.3010   16.1660 N   0  0  0  0  0  0  0  0  0  0  0  0
   -7.2570    1.5060   16.7620 O   0  0  0  0  0  0  0  0  0  0  0  0
    3.1630    9.5750   13.7630 O   0  0  0  0  0  0  0  0  0  0  0  0
  2  1  1  0
  5  2  1  0
 30  2  2  0
 11  3  2  0
 15  4  2  0
  6  5  1  0
  7  6  1  0
  8  7  1  0
  9  8  1  0
 10  9  1  0
 11 10  1  0
 12 11  1  0
 13 12  2  0
 21 12  1  0
 14 13  1  0
 15 14  1  0
 23 14  2  0
 16 15  1  0
 24 15  2  0
 17 16  1  0
 18 17  2  0
 25 17  1  0
 19 18  1  0
 26 19  2  0
 27 20  2  0
 22 21  2  0
 23 22  1  0
 26 25  1  0
 27 26  1  0
 28 27  1  0
 29 27  2  0
M  CHG  2   1  -1   2   1
A    1
OAA
A    2
NAB
A    3
OAC
A    4
OAD
A    5
OAE
A    6
CAF
A    7
CAG
A    8
CAH
A    9
CAI
A   10
OAJ
A   11
CAK
A   12
CAL
A   13
CAM
A   14
CAN
A   15
SAO
A   16
NAP
A   17
CAQ
A   18
NAR
A   19
NAS
A   20
OAT
A   21
CAU
A   22
CAV
A   23
CAW
A   24
OAX
A   25
SAY
A   26
CAZ
A   27
SBA
A   28
NBB
A   29
OBC
A   30
ONA
M  END
>  <Id>  (97) 
3NI5_C1H_A_264

>  <ChainId>  (97) 
A

>  <AsymId>  (97) 
D

>  <SeqNum>  (97) 
264

>  <Name>  (97) 
4-(nitrooxy)butyl 3-[(5-sulfamoyl-1,3,4-thiadiazol-2-yl)sulfamoyl]benzoate

>  <SystematicName>  (97) 
4-nitrooxybutyl 3-[(5-sulfamoyl-1,3,4-thiadiazol-2-yl)sulfamoyl]benzoate

>  <Synonyms>  (97) 


>  <Type>  (97) 
NON-POLYMER

>  <Formula>  (97) 
C13 H15 N5 O9 S3

>  <ObservedFormula>  (97) 
C13 S3 N5 O9

>  <MolecularWeight>  (97) 
481.481

>  <ModifiedDate>  (97) 
2011-06-17

>  <Parent>  (97) 


>  <OneLetterCode>  (97) 


>  <SubcomponentList>  (97) 


>  <AmbiguousFlag>  (97) 
N

>  <InsertionCode>  (97) 


>  <InstanceId>  (97) 
3NI5_C1H_A_264

>  <ChemCompId>  (97) 
C1H

>  <PdbId>  (97) 
3NI5

>  <ResidueNumber>  (97) 
264

>  <InChI>  (97) 
InChI=1S/C13H15N5O9S3/c14-29(22,23)13-16-15-12(28-13)17-30(24,25)10-5-3-4-9(8-10)11(19)26-6-1-2-7-27-18(20)21/h3-5,8H,1-2,6-7H2,(H,15,17)(H2,14,22,23)

>  <InChIKey>  (97) 
QCXYDHYYUCXOLH-UHFFFAOYSA-N

>  <SMILES>  (97) 
c1cc(cc(c1)S(=O)(=O)Nc2nnc(s2)S(=O)(=O)N)C(=O)OCCCCO[N+](=O)[O-]

>  <MissingHeavyAtoms>  (97) 
0

>  <Model>  (97) 
1

>  <AltIds>  (97) 


>  <pKI>  (97) 
7.55

>  <ChemblID>  (97) 
CHEMBL1738778

>  <standardized_canonical_smiles>  (97) 
NS(=O)(=O)c1nnc(NS(=O)(=O)c2cccc(C(=O)OCCCCO[N+](=O)[O-])c2)s1

$$$$
3OY0_GOL_A_400
     RDKit          3D

  6  5  0  0  0  0  0  0  0  0999 V2000
   -4.8980    1.1670   11.2850 C   0  0  0  0  0  0  0  0  0  0  0  0
   -4.9760    0.8320    9.9210 O   0  0  0  0  0  0  0  0  0  0  0  0
   -4.6890   -0.1710   12.0010 C   0  0  0  0  0  0  0  0  0  0  0  0
   -3.4130   -0.6410   11.6890 O   0  0  0  0  0  0  0  0  0  0  0  0
   -4.8000   -0.0200   13.5000 C   0  0  0  0  0  0  0  0  0  0  0  0
   -3.8050    0.8570   13.9240 O   0  0  0  0  0  0  0  0  0  0  0  0
  2  1  1  0
  3  1  1  0
  4  3  1  0
  5  3  1  0
  6  5  1  0
A    1
C1
A    2
O1
A    3
C2
A    4
O2
A    5
C3
A    6
O3
M  END
>  <Id>  (98) 
3OY0_GOL_A_400

>  <ChainId>  (98) 
A

>  <AsymId>  (98) 
D

>  <SeqNum>  (98) 
400

>  <Name>  (98) 
GLYCEROL

>  <SystematicName>  (98) 
propane-1,2,3-triol

>  <Synonyms>  (98) 
GLYCERIN; PROPANE-1,2,3-TRIOL

>  <Type>  (98) 
NON-POLYMER

>  <Formula>  (98) 
C3 H8 O3

>  <ObservedFormula>  (98) 
C3 O3

>  <MolecularWeight>  (98) 
92.094

>  <ModifiedDate>  (98) 
2011-06-04

>  <Parent>  (98) 


>  <OneLetterCode>  (98) 


>  <SubcomponentList>  (98) 


>  <AmbiguousFlag>  (98) 
N

>  <InsertionCode>  (98) 


>  <InstanceId>  (98) 
3OY0_GOL_A_400

>  <ChemCompId>  (98) 
GOL

>  <PdbId>  (98) 
3OY0

>  <ResidueNumber>  (98) 
400

>  <InChI>  (98) 
InChI=1S/C3H8O3/c4-1-3(6)2-5/h3-6H,1-2H2

>  <InChIKey>  (98) 
PEDCQBHIVMGVHV-UHFFFAOYSA-N

>  <SMILES>  (98) 
C(C(CO)O)O

>  <MissingHeavyAtoms>  (98) 
0

>  <Model>  (98) 
1

>  <AltIds>  (98) 


>  <pKI>  (98) 
8.0

>  <ChemblID>  (98) 
CHEMBL1083383

>  <standardized_canonical_smiles>  (98) 
CCCC(C(=O)Nc1ccc(S(N)(=O)=O)cc1)C(C)(C)C

$$$$
3OY0_OY0_A_263
     RDKit          3D

 21 21  0  0  0  0  0  0  0  0999 V2000
   -0.7630    9.2030   14.8930 C   0  0  0  0  0  0  0  0  0  0  0  0
   -0.9660    6.4220   10.6070 C   0  0  0  0  0  0  0  0  0  0  0  0
   -2.4710    8.1060    9.7820 C   0  0  0  0  0  0  0  0  0  0  0  0
   -3.3330    5.8950   10.2970 C   0  0  0  0  0  0  0  0  0  0  0  0
   -5.3370   -0.4290   16.1280 N   0  0  0  0  0  0  0  0  0  0  0  0
   -4.6840    6.6930   13.0190 O   0  0  0  0  0  0  0  0  0  0  0  0
   -7.3160    1.2060   16.6320 O   0  0  0  0  0  0  0  0  0  0  0  0
   -5.3820    1.2190   18.1210 O   0  0  0  0  0  0  0  0  0  0  0  0
   -3.0910    3.2550   14.8580 C   0  0  0  0  0  0  0  0  0  0  0  0
   -5.1380    4.4490   14.5580 C   0  0  0  0  0  0  0  0  0  0  0  0
   -3.7510    2.2800   15.5990 C   0  0  0  0  0  0  0  0  0  0  0  0
   -5.8180    3.4470   15.2740 C   0  0  0  0  0  0  0  0  0  0  0  0
   -1.6300    8.1190   14.3540 C   0  0  0  0  0  0  0  0  0  0  0  0
   -1.4350    7.7540   12.9180 C   0  0  0  0  0  0  0  0  0  0  0  0
   -2.9380    5.3070   13.6040 N   0  0  0  0  0  0  0  0  0  0  0  0
   -3.4910    6.4630   12.9350 C   0  0  0  0  0  0  0  0  0  0  0  0
   -3.7530    4.3630   14.3540 C   0  0  0  0  0  0  0  0  0  0  0  0
   -5.1150    2.3410   15.8070 C   0  0  0  0  0  0  0  0  0  0  0  0
   -2.6560    7.4230   12.1320 C   0  0  0  0  0  0  0  0  0  0  0  0
   -2.3540    6.9510   10.7230 C   0  0  0  0  0  0  0  0  0  0  0  0
   -5.8580    1.0130   16.7430 S   0  0  0  0  0  0  0  0  0  0  0  0
 13  1  1  0
 20  2  1  0
 20  3  1  0
 20  4  1  0
 21  5  1  0
 16  6  2  0
 21  7  2  0
 21  8  2  0
 11  9  2  0
 17  9  1  0
 12 10  1  0
 17 10  2  0
 18 11  1  0
 18 12  2  0
 14 13  1  0
 19 14  1  0
 16 15  1  0
 17 15  1  0
 19 16  1  0
 21 18  1  0
 20 19  1  0
A    1
CAA
A    2
CAB
A    3
CAC
A    4
CAD
A    5
NAE
A    6
OAF
A    7
OAG
A    8
OAH
A    9
CAI
A   10
CAJ
A   11
CAK
A   12
CAL
A   13
CAM
A   14
CAN
A   15
NAO
A   16
CAP
A   17
CAQ
A   18
CAR
A   19
CAS
A   20
CAT
A   21
SAU
M  END
>  <Id>  (99) 
3OY0_OY0_A_263

>  <ChainId>  (99) 
A

>  <AsymId>  (99) 
C

>  <SeqNum>  (99) 
263

>  <Name>  (99) 
(2S)-2-tert-butyl-N-(4-sulfamoylphenyl)pentanamide

>  <SystematicName>  (99) 
(2S)-2-tert-butyl-N-(4-sulfamoylphenyl)pentanamide

>  <Synonyms>  (99) 


>  <Type>  (99) 
NON-POLYMER

>  <Formula>  (99) 
C15 H24 N2 O3 S

>  <ObservedFormula>  (99) 
C15 S N2 O3

>  <MolecularWeight>  (99) 
312.428

>  <ModifiedDate>  (99) 
2011-08-05

>  <Parent>  (99) 


>  <OneLetterCode>  (99) 


>  <SubcomponentList>  (99) 


>  <AmbiguousFlag>  (99) 
N

>  <InsertionCode>  (99) 


>  <InstanceId>  (99) 
3OY0_OY0_A_263

>  <ChemCompId>  (99) 
OY0

>  <PdbId>  (99) 
3OY0

>  <ResidueNumber>  (99) 
263

>  <InChI>  (99) 
InChI=1S/C15H24N2O3S/c1-5-6-13(15(2,3)4)14(18)17-11-7-9-12(10-8-11)21(16,19)20/h7-10,13H,5-6H2,1-4H3,(H,17,18)(H2,16,19,20)/t13-/m1/s1

>  <InChIKey>  (99) 
WYSWMHFXVFMYFI-CYBMUJFWSA-N

>  <SMILES>  (99) 
CCC[C@H](C(=O)Nc1ccc(cc1)S(=O)(=O)N)C(C)(C)C

>  <MissingHeavyAtoms>  (99) 
0

>  <Model>  (99) 
1

>  <AltIds>  (99) 


>  <pKI>  (99) 
8.0

>  <ChemblID>  (99) 
CHEMBL1083383

>  <standardized_canonical_smiles>  (99) 
CCCC(C(=O)Nc1ccc(S(N)(=O)=O)cc1)C(C)(C)C

$$$$
3OY0_DMS_A_3092
     RDKit          3D

  4  3  0  0  0  0  0  0  0  0999 V2000
    1.3870  -11.6090   14.8530 S   0  0  0  0  0  0  0  0  0  0  0  0
    2.4110  -10.8640   13.5710 O   0  0  0  0  0  0  0  0  0  0  0  0
    2.0990  -13.2720   14.7920 C   0  0  0  0  0  0  0  0  0  0  0  0
    1.6980  -11.2490   16.6160 C   0  0  0  0  0  0  0  0  0  0  0  0
  2  1  2  0
  3  1  1  0
  4  1  1  0
A    1
S
A    2
O
A    3
C1
A    4
C2
M  END
>  <Id>  (100) 
3OY0_DMS_A_3092

>  <ChainId>  (100) 
A

>  <AsymId>  (100) 
E

>  <SeqNum>  (100) 
3092

>  <Name>  (100) 
DIMETHYL SULFOXIDE

>  <SystematicName>  (100) 
methylsulfinylmethane

>  <Synonyms>  (100) 


>  <Type>  (100) 
NON-POLYMER

>  <Formula>  (100) 
C2 H6 O S

>  <ObservedFormula>  (100) 
S C2 O

>  <MolecularWeight>  (100) 
78.133

>  <ModifiedDate>  (100) 
2011-06-04

>  <Parent>  (100) 


>  <OneLetterCode>  (100) 


>  <SubcomponentList>  (100) 


>  <AmbiguousFlag>  (100) 
N

>  <InsertionCode>  (100) 


>  <InstanceId>  (100) 
3OY0_DMS_A_3092

>  <ChemCompId>  (100) 
DMS

>  <PdbId>  (100) 
3OY0

>  <ResidueNumber>  (100) 
3092

>  <InChI>  (100) 
InChI=1S/C2H6OS/c1-4(2)3/h1-2H3

>  <InChIKey>  (100) 
IAZDPXIOMUYVGZ-UHFFFAOYSA-N

>  <SMILES>  (100) 
CS(=O)C

>  <MissingHeavyAtoms>  (100) 
0

>  <Model>  (100) 
1

>  <AltIds>  (100) 


>  <pKI>  (100) 
8.0

>  <ChemblID>  (100) 
CHEMBL1083383

>  <standardized_canonical_smiles>  (100) 
CCCC(C(=O)Nc1ccc(S(N)(=O)=O)cc1)C(C)(C)C

$$$$
3MNA_DWH_A_263
     RDKit          3D

 24 25  0  0  0  0  0  0  0  0999 V2000
   -5.2200    2.6390   15.7540 C   0  0  0  0  0  0  0  0  0  0  0  0
   -5.3950   -0.0150   16.0790 N   0  0  0  0  0  0  0  0  0  0  0  0
   -7.3310    1.5100   16.6350 O   0  0  0  0  0  0  0  0  0  0  0  0
   -5.8860    1.3350   16.7470 S   0  0  0  0  0  0  0  0  0  0  0  0
   -6.1000    3.7450   15.2940 C   0  0  0  0  0  0  0  0  0  0  0  0
   -5.3270    1.5240   18.0710 O   0  0  0  0  0  0  0  0  0  0  0  0
   -5.6000    4.7620   14.5530 C   0  0  0  0  0  0  0  0  0  0  0  0
   -4.1780    4.7370   14.2180 C   0  0  0  0  0  0  0  0  0  0  0  0
   -3.3630    3.7420   14.6190 C   0  0  0  0  0  0  0  0  0  0  0  0
   -3.8970    2.6560   15.4170 C   0  0  0  0  0  0  0  0  0  0  0  0
   -3.5240    5.7510   13.5140 N   0  0  0  0  0  0  0  0  0  0  0  0
   -4.1280    6.6130   12.6130 C   0  0  0  0  0  0  0  0  0  0  0  0
   -3.2450    7.6020   12.1200 N   0  0  0  0  0  0  0  0  0  0  0  0
   -3.7080    8.4890   11.3030 C   0  0  0  0  0  0  0  0  0  0  0  0
   -2.8580    9.5030   10.8120 N   0  0  0  0  0  0  0  0  0  0  0  0
   -5.0700    8.4840   10.9340 N   0  0  0  0  0  0  0  0  0  0  0  0
   -5.8540    7.5600   11.4100 C   0  0  0  0  0  0  0  0  0  0  0  0
   -7.4770    7.5490   10.9190 Cl  0  0  0  0  0  0  0  0  0  0  0  0
   -5.3860    6.5770   12.3180 N   0  0  0  0  0  0  0  0  0  0  0  0
   -1.4510    9.3600   11.0240 C   0  0  0  0  0  0  0  0  0  0  0  0
   -0.9020    8.5610    9.8920 C   0  0  0  0  0  0  0  0  0  0  0  0
    0.7800    7.9600    8.4800 C   0  0  0  0  0  0  0  0  0  0  0  0
    0.3040    8.6850    9.5590 O   0  0  0  0  0  0  0  0  0  0  0  0
   -1.6470    7.7850    9.2350 O   0  0  0  0  0  0  0  0  0  0  0  0
  4  1  1  0
  5  1  2  0
 10  1  1  0
  4  2  1  0
  4  3  2  0
  6  4  2  0
  7  5  1  0
  8  7  2  0
  9  8  1  0
 11  8  1  0
 10  9  2  0
 12 11  1  0
 13 12  2  0
 19 12  1  0
 14 13  1  0
 15 14  1  0
 16 14  2  0
 20 15  1  0
 17 16  1  0
 18 17  1  0
 19 17  2  0
 21 20  1  0
 23 21  1  0
 24 21  2  0
 23 22  1  0
A    1
C1
A    2
N1
A    3
O1
A    4
S1
A    5
C2
A    6
O2
A    7
C3
A    8
C4
A    9
C5
A   10
C6
A   11
N7
A   12
C8
A   13
N9
A   14
C10
A   15
N11
A   16
N12
A   17
C13
A   18
CL13
A   19
N14
A   20
C15
A   21
C16
A   22
C17
A   23
O17
A   24
O18
M  END
>  <Id>  (101) 
3MNA_DWH_A_263

>  <ChainId>  (101) 
A

>  <AsymId>  (101) 
C

>  <SeqNum>  (101) 
263

>  <Name>  (101) 
methyl N-{4-chloro-6-[(4-sulfamoylphenyl)amino]-1,3,5-triazin-2-yl}glycinate

>  <SystematicName>  (101) 
methyl 2-[[4-chloro-6-[(4-sulfamoylphenyl)amino]-1,3,5-triazin-2-yl]amino]ethanoate

>  <Synonyms>  (101) 


>  <Type>  (101) 
NON-POLYMER

>  <Formula>  (101) 
C12 H13 Cl N6 O4 S

>  <ObservedFormula>  (101) 
C12 S Cl N6 O4

>  <MolecularWeight>  (101) 
372.787

>  <ModifiedDate>  (101) 
2011-06-04

>  <Parent>  (101) 


>  <OneLetterCode>  (101) 


>  <SubcomponentList>  (101) 


>  <AmbiguousFlag>  (101) 
N

>  <InsertionCode>  (101) 


>  <InstanceId>  (101) 
3MNA_DWH_A_263

>  <ChemCompId>  (101) 
DWH

>  <PdbId>  (101) 
3MNA

>  <ResidueNumber>  (101) 
263

>  <InChI>  (101) 
InChI=1S/C12H13ClN6O4S/c1-23-9(20)6-15-11-17-10(13)18-12(19-11)16-7-2-4-8(5-3-7)24(14,21)22/h2-5H,6H2,1H3,(H2,14,21,22)(H2,15,16,17,18,19)

>  <InChIKey>  (101) 
UKXSOQVHRHLCDQ-UHFFFAOYSA-N

>  <SMILES>  (101) 
COC(=O)CNc1nc(nc(n1)Cl)Nc2ccc(cc2)S(=O)(=O)N

>  <MissingHeavyAtoms>  (101) 
0

>  <Model>  (101) 
1

>  <AltIds>  (101) 


>  <pKI>  (101) 
7.39

>  <ChemblID>  (101) 
CHEMBL1738792

>  <standardized_canonical_smiles>  (101) 
COC(=O)CNc1nc(Cl)nc(Nc2ccc(S(N)(=O)=O)cc2)n1

$$$$
3MMF_D9H_A_263
     RDKit          3D

 22 23  0  0  0  0  0  0  0  0999 V2000
   -5.3320    2.0580   15.7700 C   0  0  0  0  0  0  0  0  0  0  0  0
   -5.4280   -0.5910   16.0780 N   0  0  0  0  0  0  0  0  0  0  0  0
   -7.3950    0.8770   16.6480 O   0  0  0  0  0  0  0  0  0  0  0  0
   -5.9260    0.7330   16.7560 S   0  0  0  0  0  0  0  0  0  0  0  0
   -6.1360    3.0940   15.3830 C   0  0  0  0  0  0  0  0  0  0  0  0
   -5.3620    0.9630   18.0380 O   0  0  0  0  0  0  0  0  0  0  0  0
   -5.6090    4.2180   14.5900 C   0  0  0  0  0  0  0  0  0  0  0  0
   -4.2870    4.1770   14.2510 C   0  0  0  0  0  0  0  0  0  0  0  0
   -3.4210    3.0800   14.6580 C   0  0  0  0  0  0  0  0  0  0  0  0
   -3.9240    2.0480   15.3760 C   0  0  0  0  0  0  0  0  0  0  0  0
   -3.6130    5.1780   13.5450 N   0  0  0  0  0  0  0  0  0  0  0  0
   -4.1860    6.1400   12.7300 C   0  0  0  0  0  0  0  0  0  0  0  0
   -3.3100    6.9740   12.1470 N   0  0  0  0  0  0  0  0  0  0  0  0
   -3.7650    7.9520   11.3660 C   0  0  0  0  0  0  0  0  0  0  0  0
   -2.8540    8.8520   10.7410 N   0  0  0  0  0  0  0  0  0  0  0  0
   -5.0790    8.1110   11.2030 N   0  0  0  0  0  0  0  0  0  0  0  0
   -5.9240    7.2630   11.7920 C   0  0  0  0  0  0  0  0  0  0  0  0
   -7.5810    7.5300   11.6110 Cl  0  0  0  0  0  0  0  0  0  0  0  0
   -5.4980    6.2740   12.5730 N   0  0  0  0  0  0  0  0  0  0  0  0
   -1.4510    8.5490   10.7320 C   0  0  0  0  0  0  0  0  0  0  0  0
   -1.1510    7.7510    9.5020 C   0  0  0  0  0  0  0  0  0  0  0  0
    0.1540    7.2910    9.5320 O   0  0  0  0  0  0  0  0  0  0  0  0
  4  1  1  0
  5  1  2  0
 10  1  1  0
  4  2  1  0
  4  3  2  0
  6  4  2  0
  7  5  1  0
  8  7  2  0
  9  8  1  0
 11  8  1  0
 10  9  2  0
 12 11  1  0
 13 12  2  0
 19 12  1  0
 14 13  1  0
 15 14  1  0
 16 14  2  0
 20 15  1  0
 17 16  1  0
 18 17  1  0
 19 17  2  0
 21 20  1  0
 22 21  1  0
A    1
C1
A    2
N1
A    3
O1
A    4
S1
A    5
C2
A    6
O2
A    7
C3
A    8
C4
A    9
C5
A   10
C6
A   11
N7
A   12
C8
A   13
N9
A   14
C10
A   15
N11
A   16
N12
A   17
C13
A   18
CL13
A   19
N14
A   20
C15
A   21
C16
A   22
O17
M  END
>  <Id>  (102) 
3MMF_D9H_A_263

>  <ChainId>  (102) 
A

>  <AsymId>  (102) 
C

>  <SeqNum>  (102) 
263

>  <Name>  (102) 
4-({4-chloro-6-[(2-hydroxyethyl)amino]-1,3,5-triazin-2-yl}amino)benzenesulfonamide

>  <SystematicName>  (102) 
4-[[4-chloro-6-(2-hydroxyethylamino)-1,3,5-triazin-2-yl]amino]benzenesulfonamide

>  <Synonyms>  (102) 


>  <Type>  (102) 
NON-POLYMER

>  <Formula>  (102) 
C11 H13 Cl N6 O3 S

>  <ObservedFormula>  (102) 
C11 S Cl N6 O3

>  <MolecularWeight>  (102) 
344.777

>  <ModifiedDate>  (102) 
2011-06-04

>  <Parent>  (102) 


>  <OneLetterCode>  (102) 


>  <SubcomponentList>  (102) 


>  <AmbiguousFlag>  (102) 
N

>  <InsertionCode>  (102) 


>  <InstanceId>  (102) 
3MMF_D9H_A_263

>  <ChemCompId>  (102) 
D9H

>  <PdbId>  (102) 
3MMF

>  <ResidueNumber>  (102) 
263

>  <InChI>  (102) 
InChI=1S/C11H13ClN6O3S/c12-9-16-10(14-5-6-19)18-11(17-9)15-7-1-3-8(4-2-7)22(13,20)21/h1-4,19H,5-6H2,(H2,13,20,21)(H2,14,15,16,17,18)

>  <InChIKey>  (102) 
QZIFPRRIFLBFHT-UHFFFAOYSA-N

>  <SMILES>  (102) 
c1cc(ccc1Nc2nc(nc(n2)Cl)NCCO)S(=O)(=O)N

>  <MissingHeavyAtoms>  (102) 
0

>  <Model>  (102) 
1

>  <AltIds>  (102) 


>  <pKI>  (102) 
7.43

>  <ChemblID>  (102) 
CHEMBL1738787

>  <standardized_canonical_smiles>  (102) 
NS(=O)(=O)c1ccc(Nc2nc(Cl)nc(NCCO)n2)cc1

$$$$
1ZFK_NR2_A_1500
     RDKit          3D

 24 25  0  0  0  0  0  0  0  0999 V2000
   14.2160   10.4850    8.5620 S   0  0  0  0  0  0  0  0  0  0  0  0
   15.2670   10.9150    7.6030 N   0  0  0  0  0  0  0  0  0  0  0  0
   13.7420    9.1370    8.2400 O   0  0  0  0  0  0  0  0  0  0  0  0
   14.5870   10.8190    9.9190 O   0  0  0  0  0  0  0  0  0  0  0  0
   12.8840   11.5530    8.0590 C   0  0  0  0  0  0  0  0  0  0  0  0
   11.6230   10.9400    8.0330 C   0  0  0  0  0  0  0  0  0  0  0  0
   10.5120   11.6980    7.6570 C   0  0  0  0  0  0  0  0  0  0  0  0
   10.6970   13.0430    7.3060 C   0  0  0  0  0  0  0  0  0  0  0  0
    9.5580   13.7940    6.9240 N   0  0  0  0  0  0  0  0  0  0  0  0
    9.4880   15.0840    6.5500 C   0  0  0  0  0  0  0  0  0  0  0  0
   10.4540   15.8350    6.4830 O   0  0  0  0  0  0  0  0  0  0  0  0
    8.2490   15.4880    6.2510 N   0  0  0  0  0  0  0  0  0  0  0  0
    7.8680   16.8080    5.6340 S   0  0  0  0  0  0  0  0  0  0  0  0
    6.4150   16.8430    5.5900 O   0  0  0  0  0  0  0  0  0  0  0  0
    8.6270   17.8820    6.2330 O   0  0  0  0  0  0  0  0  0  0  0  0
    8.4580   16.4400    4.0020 C   0  0  0  0  0  0  0  0  0  0  0  0
    9.7930   16.6270    3.6570 C   0  0  0  0  0  0  0  0  0  0  0  0
   10.2140   16.3230    2.3560 C   0  0  0  0  0  0  0  0  0  0  0  0
    9.3010   15.8390    1.4180 C   0  0  0  0  0  0  0  0  0  0  0  0
    9.7660   15.5100    0.0010 C   0  0  0  0  0  0  0  0  0  0  0  0
    7.9580   15.6510    1.7650 C   0  0  0  0  0  0  0  0  0  0  0  0
    7.5420   15.9550    3.0610 C   0  0  0  0  0  0  0  0  0  0  0  0
   11.9610   13.6340    7.3360 C   0  0  0  0  0  0  0  0  0  0  0  0
   13.0900   12.8860    7.7160 C   0  0  0  0  0  0  0  0  0  0  0  0
  2  1  1  0
  3  1  2  0
  4  1  2  0
  5  1  1  0
  6  5  2  0
 24  5  1  0
  7  6  1  0
  8  7  2  0
  9  8  1  0
 23  8  1  0
 10  9  1  0
 11 10  2  0
 12 10  1  0
 13 12  1  0
 14 13  2  0
 15 13  2  0
 16 13  1  0
 17 16  2  0
 22 16  1  0
 18 17  1  0
 19 18  2  0
 20 19  1  0
 21 19  1  0
 22 21  2  0
 24 23  2  0
A    1
S1
A    2
N24
A    3
O23
A    4
O22
A    5
C2
A    6
C7
A    7
C6
A    8
C5
A    9
N8
A   10
C9
A   11
O13
A   12
N10
A   13
S11
A   14
O15
A   15
O14
A   16
C12
A   17
C20
A   18
C19
A   19
C18
A   20
C21
A   21
C17
A   22
C16
A   23
C4
A   24
C3
M  END
>  <Id>  (103) 
1ZFK_NR2_A_1500

>  <ChainId>  (103) 
A

>  <AsymId>  (103) 
E

>  <SeqNum>  (103) 
1500

>  <Name>  (103) 
N-({[4-(AMINOSULFONYL)PHENYL]AMINO}CARBONYL)-4-METHYLBENZENESULFONAMIDE

>  <SystematicName>  (103) 
3-(4-methylphenyl)sulfonyl-1-(4-sulfamoylphenyl)urea

>  <Synonyms>  (103) 


>  <Type>  (103) 
NON-POLYMER

>  <Formula>  (103) 
C14 H15 N3 O5 S2

>  <ObservedFormula>  (103) 
S2 C14 N3 O5

>  <MolecularWeight>  (103) 
369.416

>  <ModifiedDate>  (103) 
2011-06-04

>  <Parent>  (103) 


>  <OneLetterCode>  (103) 


>  <SubcomponentList>  (103) 


>  <AmbiguousFlag>  (103) 
N

>  <InsertionCode>  (103) 


>  <InstanceId>  (103) 
1ZFK_NR2_A_1500

>  <ChemCompId>  (103) 
NR2

>  <PdbId>  (103) 
1ZFK

>  <ResidueNumber>  (103) 
1500

>  <InChI>  (103) 
InChI=1S/C14H15N3O5S2/c1-10-2-6-13(7-3-10)24(21,22)17-14(18)16-11-4-8-12(9-5-11)23(15,19)20/h2-9H,1H3,(H2,15,19,20)(H2,16,17,18)

>  <InChIKey>  (103) 
HDCXQTPVTAIPNZ-UHFFFAOYSA-N

>  <SMILES>  (103) 
Cc1ccc(cc1)S(=O)(=O)NC(=O)Nc2ccc(cc2)S(=O)(=O)N

>  <MissingHeavyAtoms>  (103) 
0

>  <Model>  (103) 
1

>  <AltIds>  (103) 


>  <pKI>  (103) 
7.92

>  <ChemblID>  (103) 
CHEMBL78755

>  <standardized_canonical_smiles>  (103) 
Cc1ccc(S(=O)(=O)NC(=O)Nc2ccc(S(N)(=O)=O)cc2)cc1

$$$$
3P58_P58_A_263
     RDKit          3D

 12 12  0  0  0  0  0  0  0  0999 V2000
   -6.0560    3.8860   15.0950 C   0  0  0  0  0  0  0  0  0  0  0  0
   -7.3050    1.7730   16.8420 S   0  0  0  0  0  0  0  0  0  0  0  0
   -4.9680    0.0320   16.2240 S   0  0  0  0  0  0  0  0  0  0  0  0
   -4.8820    1.1590   10.4940 C   0  0  0  0  0  0  0  0  0  0  0  0
   -4.7370    2.5580   10.7550 C   0  0  0  0  0  0  0  0  0  0  0  0
   -4.6980    0.2420   11.5640 C   0  0  0  0  0  0  0  0  0  0  0  0
   -4.4700    3.0050   12.0660 C   0  0  0  0  0  0  0  0  0  0  0  0
   -4.4200    0.6900   12.8780 C   0  0  0  0  0  0  0  0  0  0  0  0
   -4.0060    2.4630   14.5590 C   0  0  0  0  0  0  0  0  0  0  0  0
   -5.6820    1.6540   16.2110 C   0  0  0  0  0  0  0  0  0  0  0  0
   -4.2880    2.0620   13.1080 C   0  0  0  0  0  0  0  0  0  0  0  0
   -5.2840    2.6460   15.2760 N   0  0  0  0  0  0  0  0  0  0  0  0
 12  1  1  0
 10  2  1  0
 10  3  2  0
  5  4  2  0
  6  4  1  0
  7  5  1  0
  8  6  2  0
 11  7  2  0
 11  8  1  0
 11  9  1  0
 12  9  1  0
 12 10  1  0
A    1
CAA
A    2
SAB
A    3
SAC
A    4
CAD
A    5
CAE
A    6
CAF
A    7
CAG
A    8
CAH
A    9
CAI
A   10
CAJ
A   11
CAK
A   12
NAL
M  END
>  <Id>  (104) 
3P58_P58_A_263

>  <ChainId>  (104) 
A

>  <AsymId>  (104) 
C

>  <SeqNum>  (104) 
263

>  <Name>  (104) 
benzyl(methyl)carbamodithioic acid

>  <SystematicName>  (104) 
methyl(phenylmethyl)carbamodithioic acid

>  <Synonyms>  (104) 


>  <Type>  (104) 
NON-POLYMER

>  <Formula>  (104) 
C9 H11 N S2

>  <ObservedFormula>  (104) 
C9 S2 N

>  <MolecularWeight>  (104) 
197.32

>  <ModifiedDate>  (104) 
2011-10-14

>  <Parent>  (104) 


>  <OneLetterCode>  (104) 


>  <SubcomponentList>  (104) 


>  <AmbiguousFlag>  (104) 
N

>  <InsertionCode>  (104) 


>  <InstanceId>  (104) 
3P58_P58_A_263

>  <ChemCompId>  (104) 
P58

>  <PdbId>  (104) 
3P58

>  <ResidueNumber>  (104) 
263

>  <InChI>  (104) 
InChI=1S/C9H11NS2/c1-10(9(11)12)7-8-5-3-2-4-6-8/h2-6H,7H2,1H3,(H,11,12)

>  <InChIKey>  (104) 
KVRJHAJGPHILSK-UHFFFAOYSA-N

>  <SMILES>  (104) 
CN(Cc1ccccc1)C(=S)S

>  <MissingHeavyAtoms>  (104) 
0

>  <Model>  (104) 
1

>  <AltIds>  (104) 


>  <pKI>  (104) 
7.6

>  <ChemblID>  (104) 
CHEMBL2023726

>  <standardized_canonical_smiles>  (104) 
CN(Cc1ccccc1)C(=S)S

$$$$
3P5A_IT2_A_263
     RDKit          3D

  9  9  0  0  0  0  0  0  0  0999 V2000
   -5.3180    2.6790   15.1500 N   0  0  0  0  0  0  0  0  0  0  0  0
   -7.2720    1.6980   16.7780 S   0  0  0  0  0  0  0  0  0  0  0  0
   -4.9190    0.0980   15.9770 S   0  0  0  0  0  0  0  0  0  0  0  0
   -5.8230    4.7300   14.0060 C   0  0  0  0  0  0  0  0  0  0  0  0
   -3.7620    3.5810   13.6010 C   0  0  0  0  0  0  0  0  0  0  0  0
   -6.0450    3.8850   15.2010 C   0  0  0  0  0  0  0  0  0  0  0  0
   -3.9600    2.7940   14.8300 C   0  0  0  0  0  0  0  0  0  0  0  0
   -4.4790    4.7780   13.6310 O   0  0  0  0  0  0  0  0  0  0  0  0
   -5.6800    1.6900   16.0850 C   0  0  0  0  0  0  0  0  0  0  0  0
  6  1  1  0
  7  1  1  0
  9  1  1  0
  9  2  1  0
  9  3  2  0
  6  4  1  0
  8  4  1  0
  7  5  1  0
  8  5  1  0
A    1
N
A    2
SAA
A    3
SAB
A    4
CAC
A    5
CAD
A    6
CAE
A    7
CAF
A    8
OAG
A    9
CAH
M  END
>  <Id>  (105) 
3P5A_IT2_A_263

>  <ChainId>  (105) 
A

>  <AsymId>  (105) 
C

>  <SeqNum>  (105) 
263

>  <Name>  (105) 
morpholine-4-carbodithioic acid

>  <SystematicName>  (105) 
morpholine-4-carbodithioic acid

>  <Synonyms>  (105) 


>  <Type>  (105) 
NON-POLYMER

>  <Formula>  (105) 
C5 H9 N O S2

>  <ObservedFormula>  (105) 
S2 C5 N O

>  <MolecularWeight>  (105) 
163.261

>  <ModifiedDate>  (105) 
2011-10-14

>  <Parent>  (105) 


>  <OneLetterCode>  (105) 


>  <SubcomponentList>  (105) 


>  <AmbiguousFlag>  (105) 
N

>  <InsertionCode>  (105) 


>  <InstanceId>  (105) 
3P5A_IT2_A_263

>  <ChemCompId>  (105) 
IT2

>  <PdbId>  (105) 
3P5A

>  <ResidueNumber>  (105) 
263

>  <InChI>  (105) 
InChI=1S/C5H9NOS2/c8-5(9)6-1-3-7-4-2-6/h1-4H2,(H,8,9)

>  <InChIKey>  (105) 
NRMQMTQTYONMFY-UHFFFAOYSA-N

>  <SMILES>  (105) 
C1COCCN1C(=S)S

>  <MissingHeavyAtoms>  (105) 
0

>  <Model>  (105) 
1

>  <AltIds>  (105) 


>  <pKI>  (105) 
9.02

>  <ChemblID>  (105) 
CHEMBL2023727

>  <standardized_canonical_smiles>  (105) 
S=C(S)N1CCOCC1

$$$$
3P5L_IT5_A_263
     RDKit          3D

 17 18  0  0  0  0  0  0  0  0999 V2000
   -4.6910    4.1960   10.8940 N   0  0  0  0  0  0  0  0  0  0  0  0
   -5.2930    2.5690   14.8150 N   0  0  0  0  0  0  0  0  0  0  0  0
   -4.9140    0.1470   15.9500 S   0  0  0  0  0  0  0  0  0  0  0  0
   -7.2240    1.8800   16.6470 S   0  0  0  0  0  0  0  0  0  0  0  0
   -4.4160    4.3790   11.9910 C   0  0  0  0  0  0  0  0  0  0  0  0
   -1.1950    7.9350   13.6880 C   0  0  0  0  0  0  0  0  0  0  0  0
   -1.0450    6.9260   12.6740 C   0  0  0  0  0  0  0  0  0  0  0  0
   -2.2550    7.8440   14.6250 C   0  0  0  0  0  0  0  0  0  0  0  0
   -1.9570    5.8840   12.6210 C   0  0  0  0  0  0  0  0  0  0  0  0
   -3.1830    6.7990   14.5820 C   0  0  0  0  0  0  0  0  0  0  0  0
   -6.1170    3.7260   14.4730 C   0  0  0  0  0  0  0  0  0  0  0  0
   -4.2210    2.2350   13.9030 C   0  0  0  0  0  0  0  0  0  0  0  0
   -5.2580    4.9220   14.2010 C   0  0  0  0  0  0  0  0  0  0  0  0
   -3.3410    3.4160   13.9020 C   0  0  0  0  0  0  0  0  0  0  0  0
   -5.6800    1.7120   15.8590 C   0  0  0  0  0  0  0  0  0  0  0  0
   -3.0460    5.8060   13.5610 C   0  0  0  0  0  0  0  0  0  0  0  0
   -4.0430    4.6290   13.4630 C   0  0  0  0  0  0  0  0  0  0  0  0
  5  1  3  0
 11  2  1  0
 12  2  1  0
 15  2  1  0
 15  3  2  0
 15  4  1  0
 17  5  1  0
  7  6  2  0
  8  6  1  0
  9  7  1  0
 10  8  2  0
 16  9  2  0
 16 10  1  0
 13 11  1  0
 14 12  1  0
 17 13  1  0
 17 14  1  0
 17 16  1  0
A    1
N11
A    2
N22
A    3
SAB
A    4
SAC
A    5
CAD
A    6
CAE
A    7
CAF
A    8
CAG
A    9
CAH
A   10
CAI
A   11
CAJ
A   12
CAK
A   13
CAL
A   14
CAM
A   15
CAN
A   16
CAO
A   17
CAQ
M  END
>  <Id>  (106) 
3P5L_IT5_A_263

>  <ChainId>  (106) 
A

>  <AsymId>  (106) 
C

>  <SeqNum>  (106) 
263

>  <Name>  (106) 
4-cyano-4-phenylpiperidine-1-carbodithioic acid

>  <SystematicName>  (106) 
4-cyano-4-phenyl-piperidine-1-carbodithioic acid

>  <Synonyms>  (106) 


>  <Type>  (106) 
NON-POLYMER

>  <Formula>  (106) 
C13 H14 N2 S2

>  <ObservedFormula>  (106) 
S2 C13 N2

>  <MolecularWeight>  (106) 
262.394

>  <ModifiedDate>  (106) 
2011-10-14

>  <Parent>  (106) 


>  <OneLetterCode>  (106) 


>  <SubcomponentList>  (106) 


>  <AmbiguousFlag>  (106) 
N

>  <InsertionCode>  (106) 


>  <InstanceId>  (106) 
3P5L_IT5_A_263

>  <ChemCompId>  (106) 
IT5

>  <PdbId>  (106) 
3P5L

>  <ResidueNumber>  (106) 
263

>  <InChI>  (106) 
InChI=1S/C13H14N2S2/c14-10-13(11-4-2-1-3-5-11)6-8-15(9-7-13)12(16)17/h1-5H,6-9H2,(H,16,17)

>  <InChIKey>  (106) 
GPPHSVWKEUXGQQ-UHFFFAOYSA-N

>  <SMILES>  (106) 
c1ccc(cc1)C2(CCN(CC2)C(=S)S)C#N

>  <MissingHeavyAtoms>  (106) 
0

>  <Model>  (106) 
1

>  <AltIds>  (106) 


>  <pKI>  (106) 
7.39

>  <ChemblID>  (106) 
CHEMBL2023729

>  <standardized_canonical_smiles>  (106) 
N#CC1(c2ccccc2)CCN(C(=S)S)CC1

$$$$
3V7X_D7A_A_2002
     RDKit          3D

 25 26  0  0  0  0  0  0  0  0999 V2000
   23.0500   13.5900   14.9900 C   0  0  0  0  0  0  0  0  0  0  0  0
   21.6920   14.0420   15.0160 O   0  0  0  0  0  0  0  0  0  0  0  0
   20.8480   13.2330   14.3740 C   0  0  0  0  0  0  0  0  0  0  0  0
   20.6680   11.8880   14.6780 C   0  0  0  0  0  0  0  0  0  0  0  0
   20.1520   13.8750   13.3470 C   0  0  0  0  0  0  0  0  0  0  0  0
   20.3760   15.1810   13.2460 O   0  0  0  0  0  0  0  0  0  0  0  0
   20.3210   15.7800   11.9580 C   0  0  0  0  0  0  0  0  0  0  0  0
   19.2770   13.1100   12.6000 C   0  0  0  0  0  0  0  0  0  0  0  0
   19.1120   11.7710   12.8980 C   0  0  0  0  0  0  0  0  0  0  0  0
   19.7770   11.1240   13.9420 C   0  0  0  0  0  0  0  0  0  0  0  0
   19.4800    9.7870   14.2850 C   0  0  0  0  0  0  0  0  0  0  0  0
   19.1030    8.9010   13.1090 C   0  0  0  0  0  0  0  0  0  0  0  0
   18.5780    7.5960   13.6080 N   0  0  0  0  0  0  0  0  0  0  0  0
   17.2830    7.4570   13.8960 C   0  0  0  0  0  0  0  0  0  0  0  0
   16.4990    8.4170   13.6740 O   0  0  0  0  0  0  0  0  0  0  0  0
   16.7840    6.2690   14.5000 C   0  0  0  0  0  0  0  0  0  0  0  0
   15.4480    6.1740   14.8230 C   0  0  0  0  0  0  0  0  0  0  0  0
   14.9590    5.0500   15.4880 C   0  0  0  0  0  0  0  0  0  0  0  0
   17.6220    5.1910   14.8070 C   0  0  0  0  0  0  0  0  0  0  0  0
   17.1240    4.0420   15.4800 C   0  0  0  0  0  0  0  0  0  0  0  0
   15.7710    3.9940   15.8270 C   0  0  0  0  0  0  0  0  0  0  0  0
   15.1590    2.6040   16.7340 S   0  0  0  0  0  0  0  0  0  0  0  0
   15.7310    2.7490   18.0860 O   0  0  0  0  0  0  0  0  0  0  0  0
   13.7110    2.6770   16.6380 O   0  0  0  0  0  0  0  0  0  0  0  0
   15.6890    1.2540   16.0460 N   0  0  0  0  0  0  0  0  0  0  0  0
  2  1  1  0
  3  2  1  0
  4  3  2  0
  5  3  1  0
 10  4  1  0
  6  5  1  0
  8  5  2  0
  7  6  1  0
  9  8  1  0
 10  9  2  0
 11 10  1  0
 12 11  1  0
 13 12  1  0
 14 13  1  0
 15 14  2  0
 16 14  1  0
 17 16  2  0
 19 16  1  0
 18 17  1  0
 21 18  2  0
 20 19  2  0
 21 20  1  0
 22 21  1  0
 23 22  2  0
 24 22  2  0
 25 22  1  0
A    1
CAB
A    2
OAR
A    3
CAX
A    4
CAM
A    5
CAW
A    6
OAQ
A    7
CAA
A    8
CAL
A    9
CAG
A   10
CAT
A   11
CAO
A   12
CAN
A   13
NAP
A   14
CAS
A   15
OAD
A   16
CAU
A   17
CAI
A   18
CAK
A   19
CAH
A   20
CAJ
A   21
CAV
A   22
SAY
A   23
OAE
A   24
OAF
A   25
NAC
M  END
>  <Id>  (107) 
3V7X_D7A_A_2002

>  <ChainId>  (107) 
A

>  <AsymId>  (107) 
C

>  <SeqNum>  (107) 
2002

>  <Name>  (107) 
N-[2-(3,4-dimethoxyphenyl)ethyl]-4-sulfamoylbenzamide

>  <SystematicName>  (107) 
N-[2-(3,4-dimethoxyphenyl)ethyl]-4-sulfamoyl-benzamide

>  <Synonyms>  (107) 


>  <Type>  (107) 
NON-POLYMER

>  <Formula>  (107) 
C17 H20 N2 O5 S

>  <ObservedFormula>  (107) 
C17 S N2 O5

>  <MolecularWeight>  (107) 
364.416

>  <ModifiedDate>  (107) 
2012-03-30

>  <Parent>  (107) 


>  <OneLetterCode>  (107) 


>  <SubcomponentList>  (107) 


>  <AmbiguousFlag>  (107) 
N

>  <InsertionCode>  (107) 


>  <InstanceId>  (107) 
3V7X_D7A_A_2002

>  <ChemCompId>  (107) 
D7A

>  <PdbId>  (107) 
3V7X

>  <ResidueNumber>  (107) 
2002

>  <InChI>  (107) 
InChI=1S/C17H20N2O5S/c1-23-15-8-3-12(11-16(15)24-2)9-10-19-17(20)13-4-6-14(7-5-13)25(18,21)22/h3-8,11H,9-10H2,1-2H3,(H,19,20)(H2,18,21,22)

>  <InChIKey>  (107) 
ZVVZHSQXKXOTQG-UHFFFAOYSA-N

>  <SMILES>  (107) 
COc1ccc(cc1OC)CCNC(=O)c2ccc(cc2)S(=O)(=O)N

>  <MissingHeavyAtoms>  (107) 
0

>  <Model>  (107) 
1

>  <AltIds>  (107) 


>  <pKI>  (107) 
8.57

>  <ChemblID>  (107) 
CHEMBL2048917

>  <standardized_canonical_smiles>  (107) 
COc1ccc(CCNC(=O)c2ccc(S(N)(=O)=O)cc2)cc1OC

$$$$
3VBD_0FZ_A_2002
     RDKit          3D

 22 24  0  0  0  0  0  0  0  0999 V2000
   -5.8180   10.5810   10.2290 C   0  0  0  0  0  0  0  0  0  0  0  0
   -6.5820    9.3930   10.4320 O   0  0  0  0  0  0  0  0  0  0  0  0
   -5.8440    8.3990   10.9560 C   0  0  0  0  0  0  0  0  0  0  0  0
   -4.5190    8.5380   11.3120 C   0  0  0  0  0  0  0  0  0  0  0  0
   -6.4800    7.1880   11.2200 C   0  0  0  0  0  0  0  0  0  0  0  0
   -5.7310    6.2650   11.8900 C   0  0  0  0  0  0  0  0  0  0  0  0
   -4.4280    6.3610   12.3770 C   0  0  0  0  0  0  0  0  0  0  0  0
   -3.8000    7.5610   11.9970 C   0  0  0  0  0  0  0  0  0  0  0  0
   -2.4530    7.8110   12.2330 C   0  0  0  0  0  0  0  0  0  0  0  0
   -1.7260    6.4630   12.4300 C   0  0  0  0  0  0  0  0  0  0  0  0
   -2.4570    5.7340   13.5120 N   0  0  0  0  0  0  0  0  0  0  0  0
   -3.7850    5.4880   13.2610 C   0  0  0  0  0  0  0  0  0  0  0  0
   -4.2620    4.4090   13.9940 C   0  0  0  0  0  0  0  0  0  0  0  0
   -5.5720    4.3050   14.4440 C   0  0  0  0  0  0  0  0  0  0  0  0
   -6.0460    3.2270   15.1730 C   0  0  0  0  0  0  0  0  0  0  0  0
   -3.4270    3.3280   14.3410 C   0  0  0  0  0  0  0  0  0  0  0  0
   -3.8900    2.2270   15.0920 C   0  0  0  0  0  0  0  0  0  0  0  0
   -5.2190    2.1730   15.5400 C   0  0  0  0  0  0  0  0  0  0  0  0
   -5.8070    0.8320   16.5930 S   0  0  0  0  0  0  0  0  0  0  0  0
   -5.2410    1.1410   17.9210 O   0  0  0  0  0  0  0  0  0  0  0  0
   -7.3180    1.0140   16.5570 O   0  0  0  0  0  0  0  0  0  0  0  0
   -5.3480   -0.5110   16.1290 N   0  0  0  0  0  0  0  0  0  0  0  0
  2  1  1  0
  3  2  1  0
  4  3  2  0
  5  3  1  0
  8  4  1  0
  6  5  2  0
  7  6  1  0
  8  7  2  0
 12  7  1  0
  9  8  1  0
 10  9  1  0
 11 10  1  0
 12 11  2  0
 13 12  1  0
 14 13  2  0
 16 13  1  0
 15 14  1  0
 18 15  2  0
 17 16  2  0
 18 17  1  0
 19 18  1  0
 20 19  2  0
 21 19  2  0
 22 19  1  0
A    1
CAB
A    2
OAR
A    3
CAX
A    4
CAM
A    5
CAW
A    6
CAL
A    7
CAG
A    8
CAT
A    9
CAO
A   10
CAN
A   11
NAP
A   12
CAS
A   13
CAU
A   14
CAI
A   15
CAK
A   16
CAH
A   17
CAJ
A   18
CAV
A   19
SAY
A   20
OAE
A   21
OAF
A   22
NAC
M  END
>  <Id>  (108) 
3VBD_0FZ_A_2002

>  <ChainId>  (108) 
A

>  <AsymId>  (108) 
C

>  <SeqNum>  (108) 
2002

>  <Name>  (108) 
4-(6-methoxy-3,4-dihydroisoquinolin-1-yl)benzenesulfonamide

>  <SystematicName>  (108) 
4-(6-methoxy-3,4-dihydroisoquinolin-1-yl)benzenesulfonamide

>  <Synonyms>  (108) 


>  <Type>  (108) 
NON-POLYMER

>  <Formula>  (108) 
C16 H16 N2 O3 S

>  <ObservedFormula>  (108) 
C16 S N2 O3

>  <MolecularWeight>  (108) 
316.375

>  <ModifiedDate>  (108) 
2012-03-30

>  <Parent>  (108) 


>  <OneLetterCode>  (108) 


>  <SubcomponentList>  (108) 


>  <AmbiguousFlag>  (108) 
N

>  <InsertionCode>  (108) 


>  <InstanceId>  (108) 
3VBD_0FZ_A_2002

>  <ChemCompId>  (108) 
0FZ

>  <PdbId>  (108) 
3VBD

>  <ResidueNumber>  (108) 
2002

>  <InChI>  (108) 
InChI=1S/C16H16N2O3S/c1-21-13-4-7-15-12(10-13)8-9-18-16(15)11-2-5-14(6-3-11)22(17,19)20/h2-7,10H,8-9H2,1H3,(H2,17,19,20)

>  <InChIKey>  (108) 
RZQVMYVIRNCVDY-UHFFFAOYSA-N

>  <SMILES>  (108) 
COc1ccc2c(c1)CCN=C2c3ccc(cc3)S(=O)(=O)N

>  <MissingHeavyAtoms>  (108) 
0

>  <Model>  (108) 
1

>  <AltIds>  (108) 


>  <pKI>  (108) 
8.07

>  <ChemblID>  (108) 
CHEMBL2048925

>  <standardized_canonical_smiles>  (108) 
COc1ccc2c(c1)CCN=C2c1ccc(S(N)(=O)=O)cc1

$$$$
3V5G_0F3_A_802
     RDKit          3D

 15 15  0  0  0  0  0  0  0  0999 V2000
   -7.0400    8.7810    8.6540 S   0  0  0  0  0  0  0  0  0  0  0  0
   -7.4390    7.3950    8.5670 O   0  0  0  0  0  0  0  0  0  0  0  0
   -6.7000    9.2480    9.9770 O   0  0  0  0  0  0  0  0  0  0  0  0
   -5.8260    9.0570    7.6610 N   0  0  0  0  0  0  0  0  0  0  0  0
   -9.2940   11.9030    7.3270 C   0  0  0  0  0  0  0  0  0  0  0  0
   -8.1980   11.1360    7.7850 C   0  0  0  0  0  0  0  0  0  0  0  0
   -8.4010    9.7660    8.0750 C   0  0  0  0  0  0  0  0  0  0  0  0
   -9.6670    9.1600    7.9160 C   0  0  0  0  0  0  0  0  0  0  0  0
  -10.7430    9.9390    7.4620 C   0  0  0  0  0  0  0  0  0  0  0  0
  -10.5740   11.3100    7.1630 C   0  0  0  0  0  0  0  0  0  0  0  0
  -11.7040   12.0660    6.6990 N   0  0  0  0  0  0  0  0  0  0  0  0
  -11.7740   13.6970    6.5600 S   0  0  0  0  0  0  0  0  0  0  0  0
  -13.1660   14.0290    6.4610 O   0  0  0  0  0  0  0  0  0  0  0  0
  -10.9320   14.0610    5.4600 O   0  0  0  0  0  0  0  0  0  0  0  0
  -11.1980   14.3560    7.8860 N   0  0  0  0  0  0  0  0  0  0  0  0
  2  1  2  0
  3  1  2  0
  4  1  1  0
  7  1  1  0
  6  5  2  0
 10  5  1  0
  7  6  1  0
  8  7  2  0
  9  8  1  0
 10  9  2  0
 11 10  1  0
 12 11  1  0
 13 12  2  0
 14 12  2  0
 15 12  1  0
A    1
S1
A    2
O1
A    3
O2
A    4
N1
A    5
C1
A    6
C2
A    7
C3
A    8
C4
A    9
C5
A   10
C6
A   11
N2
A   12
S2
A   13
O3
A   14
O4
A   15
N3
M  END
>  <Id>  (109) 
3V5G_0F3_A_802

>  <ChainId>  (109) 
A

>  <AsymId>  (109) 
F

>  <SeqNum>  (109) 
802

>  <Name>  (109) 
4-(sulfamoylamino)benzenesulfonamide

>  <SystematicName>  (109) 
4-(sulfamoylamino)benzenesulfonamide

>  <Synonyms>  (109) 


>  <Type>  (109) 
NON-POLYMER

>  <Formula>  (109) 
C6 H9 N3 O4 S2

>  <ObservedFormula>  (109) 
S2 C6 N3 O4

>  <MolecularWeight>  (109) 
251.283

>  <ModifiedDate>  (109) 
2012-07-20

>  <Parent>  (109) 


>  <OneLetterCode>  (109) 


>  <SubcomponentList>  (109) 


>  <AmbiguousFlag>  (109) 
N

>  <InsertionCode>  (109) 


>  <InstanceId>  (109) 
3V5G_0F3_A_802

>  <ChemCompId>  (109) 
0F3

>  <PdbId>  (109) 
3V5G

>  <ResidueNumber>  (109) 
802

>  <InChI>  (109) 
InChI=1S/C6H9N3O4S2/c7-14(10,11)6-3-1-5(2-4-6)9-15(8,12)13/h1-4,9H,(H2,7,10,11)(H2,8,12,13)

>  <InChIKey>  (109) 
VORWCQRDADUXEU-UHFFFAOYSA-N

>  <SMILES>  (109) 
c1cc(ccc1NS(=O)(=O)N)S(=O)(=O)N

>  <MissingHeavyAtoms>  (109) 
0

>  <Model>  (109) 
1

>  <AltIds>  (109) 


>  <pKI>  (109) 
7.02

>  <ChemblID>  (109) 
CHEMBL2164729

>  <standardized_canonical_smiles>  (109) 
NS(=O)(=O)Nc1ccc(S(N)(=O)=O)cc1

$$$$
3QYK_IE2_A_263
     RDKit          3D

 24 27  0  0  0  0  0  0  0  0999 V2000
   -0.3330    2.2210    9.5130 C   0  0  0  0  0  0  0  0  0  0  0  0
   -5.3420   -0.3020   16.2060 N   0  0  0  0  0  0  0  0  0  0  0  0
   -5.4020    1.1820   18.2780 O   0  0  0  0  0  0  0  0  0  0  0  0
   -7.3310    1.1510   16.7690 O   0  0  0  0  0  0  0  0  0  0  0  0
   -2.1170    2.9080   11.2380 C   0  0  0  0  0  0  0  0  0  0  0  0
   -3.1040    3.6890   15.3120 C   0  0  0  0  0  0  0  0  0  0  0  0
   -5.3520    4.6060   15.1810 C   0  0  0  0  0  0  0  0  0  0  0  0
   -3.7420    2.5680   15.9060 C   0  0  0  0  0  0  0  0  0  0  0  0
   -6.0240    3.5270   15.7820 C   0  0  0  0  0  0  0  0  0  0  0  0
   -2.5890    3.8020   12.2120 C   0  0  0  0  0  0  0  0  0  0  0  0
   -2.4380    7.7700   14.6300 C   0  0  0  0  0  0  0  0  0  0  0  0
   -0.6670    7.7530   12.6860 C   0  0  0  0  0  0  0  0  0  0  0  0
   -3.2650    6.8790   15.1870 N   0  0  0  0  0  0  0  0  0  0  0  0
   -0.1480    4.2300   10.9130 N   0  0  0  0  0  0  0  0  0  0  0  0
    0.4490    6.4260   12.1090 S   0  0  0  0  0  0  0  0  0  0  0  0
   -0.9010    3.1470   10.5980 C   0  0  0  0  0  0  0  0  0  0  0  0
   -3.9470    4.7770   14.9400 C   0  0  0  0  0  0  0  0  0  0  0  0
   -5.1510    2.4590   16.1160 C   0  0  0  0  0  0  0  0  0  0  0  0
   -1.8040    7.2530   13.5930 C   0  0  0  0  0  0  0  0  0  0  0  0
   -1.8550    4.9400   12.5900 C   0  0  0  0  0  0  0  0  0  0  0  0
   -0.6420    5.0580   11.8590 C   0  0  0  0  0  0  0  0  0  0  0  0
   -2.2840    5.9420   13.4960 C   0  0  0  0  0  0  0  0  0  0  0  0
   -3.1570    5.8170   14.5060 N   0  0  0  0  0  0  0  0  0  0  0  0
   -5.8860    1.0510   16.9160 S   0  0  0  0  0  0  0  0  0  0  0  0
 16  1  1  0
 24  2  1  0
 24  3  2  0
 24  4  2  0
 10  5  2  0
 16  5  1  0
  8  6  2  0
 17  6  1  0
  9  7  1  0
 17  7  2  0
 18  8  1  0
 18  9  2  0
 20 10  1  0
 13 11  2  0
 19 11  1  0
 15 12  1  0
 19 12  1  0
 23 13  1  0
 16 14  2  0
 21 14  1  0
 21 15  1  0
 23 17  1  0
 24 18  1  0
 22 19  2  0
 21 20  2  0
 22 20  1  0
 23 22  1  0
A    1
CAA
A    2
NAB
A    3
OAC
A    4
OAD
A    5
CAE
A    6
CAF
A    7
CAG
A    8
CAH
A    9
CAI
A   10
CAJ
A   11
CAK
A   12
CAL
A   13
NAM
A   14
NAN
A   15
SAO
A   16
CAP
A   17
CAQ
A   18
CAR
A   19
CAS
A   20
CAT
A   21
CAU
A   22
CAV
A   23
NAW
A   24
SAX
M  END
>  <Id>  (110) 
3QYK_IE2_A_263

>  <ChainId>  (110) 
A

>  <AsymId>  (110) 
D

>  <SeqNum>  (110) 
263

>  <Name>  (110) 
4-(7-methylpyrazolo[3',4':4,5]thiopyrano[2,3-b]pyridin-1(4H)-yl)benzenesulfonamide

>  <SystematicName>  (110) 
null

>  <Synonyms>  (110) 


>  <Type>  (110) 
NON-POLYMER

>  <Formula>  (110) 
C16 H14 N4 O2 S2

>  <ObservedFormula>  (110) 
C16 S2 N4 O2

>  <MolecularWeight>  (110) 
358.438

>  <ModifiedDate>  (110) 
2012-03-02

>  <Parent>  (110) 


>  <OneLetterCode>  (110) 


>  <SubcomponentList>  (110) 


>  <AmbiguousFlag>  (110) 
N

>  <InsertionCode>  (110) 


>  <InstanceId>  (110) 
3QYK_IE2_A_263

>  <ChemCompId>  (110) 
IE2

>  <PdbId>  (110) 
3QYK

>  <ResidueNumber>  (110) 
263

>  <InChI>  (110) 
InChI=1S/C16H14N4O2S2/c1-10-2-7-14-15-11(9-23-16(14)19-10)8-18-20(15)12-3-5-13(6-4-12)24(17,21)22/h2-8H,9H2,1H3,(H2,17,21,22)

>  <InChIKey>  (110) 
BBYVQBNYXZIDGW-UHFFFAOYSA-N

>  <SMILES>  (110) 
Cc1ccc-2c(n1)SCc3c2n(nc3)c4ccc(cc4)S(=O)(=O)N

>  <MissingHeavyAtoms>  (110) 
0

>  <Model>  (110) 
1

>  <AltIds>  (110) 


>  <pKI>  (110) 
7.31

>  <ChemblID>  (110) 
CHEMBL2179304

>  <standardized_canonical_smiles>  (110) 
Cc1ccc2c(n1)SCc1cnn(-c3ccc(S(N)(=O)=O)cc3)c1-2

$$$$
4E3F_GRE_A_305
     RDKit          3D

 11 11  0  0  0  0  0  0  0  0999 V2000
   13.7450   14.7540   11.1440 C   0  0  0  0  0  0  0  0  0  0  0  0
   12.9770   13.8750   10.8050 O   0  0  0  0  0  0  0  0  0  0  0  0
   13.2740   15.9030   11.2360 O   0  0  0  0  0  0  0  0  0  0  0  0
   15.1070   14.4520   11.3640 C   0  0  0  0  0  0  0  0  0  0  0  0
   15.6270   13.1280   11.1590 C   0  0  0  0  0  0  0  0  0  0  0  0
   16.9890   12.8750   11.3520 C   0  0  0  0  0  0  0  0  0  0  0  0
   17.8780   13.8880   11.7480 C   0  0  0  0  0  0  0  0  0  0  0  0
   17.4340   15.2020   11.9520 C   0  0  0  0  0  0  0  0  0  0  0  0
   16.0490   15.4630   11.7980 C   0  0  0  0  0  0  0  0  0  0  0  0
   14.7680   12.1100   10.7270 O   0  0  0  0  0  0  0  0  0  0  0  0
   15.5500   16.7020   12.0100 O   0  0  0  0  0  0  0  0  0  0  0  0
  2  1  2  0
  3  1  1  0
  4  1  1  0
  5  4  2  0
  9  4  1  0
  6  5  1  0
 10  5  1  0
  7  6  2  0
  8  7  1  0
  9  8  2  0
 11  9  1  0
A    1
C1A
A    2
O1A
A    3
O2A
A    4
C1
A    5
C2
A    6
C3
A    7
C4
A    8
C5
A    9
C6
A   10
O2
A   11
O6
M  END
>  <Id>  (111) 
4E3F_GRE_A_305

>  <ChainId>  (111) 
A

>  <AsymId>  (111) 
F

>  <SeqNum>  (111) 
305

>  <Name>  (111) 
2,6-DIHYDROXYBENZOIC ACID

>  <SystematicName>  (111) 
2,6-dihydroxybenzoic acid

>  <Synonyms>  (111) 


>  <Type>  (111) 
NON-POLYMER

>  <Formula>  (111) 
C7 H6 O4

>  <ObservedFormula>  (111) 
C7 O4

>  <MolecularWeight>  (111) 
154.12

>  <ModifiedDate>  (111) 
2011-06-04

>  <Parent>  (111) 


>  <OneLetterCode>  (111) 


>  <SubcomponentList>  (111) 


>  <AmbiguousFlag>  (111) 


>  <InsertionCode>  (111) 


>  <InstanceId>  (111) 
4E3F_GRE_A_305

>  <ChemCompId>  (111) 
GRE

>  <PdbId>  (111) 
4E3F

>  <ResidueNumber>  (111) 
305

>  <InChI>  (111) 
InChI=1S/C7H6O4/c8-4-2-1-3-5(9)6(4)7(10)11/h1-3,8-9H,(H,10,11)

>  <InChIKey>  (111) 
AKEUNCKRJATALU-UHFFFAOYSA-N

>  <SMILES>  (111) 
c1cc(c(c(c1)O)C(=O)O)O

>  <MissingHeavyAtoms>  (111) 
0

>  <Model>  (111) 
1

>  <AltIds>  (111) 


>  <pKI>  (111) 
5.28

>  <ChemblID>  (111) 
CHEMBL454808

>  <standardized_canonical_smiles>  (111) 
O=C(O)c1c(O)cccc1O

$$$$
4E3D_GTQ_A_304
     RDKit          3D

 11 11  0  0  0  0  0  0  0  0999 V2000
   25.1900   -6.5570    7.9840 O   0  0  0  0  0  0  0  0  0  0  0  0
   26.9200   -5.8590    6.7210 O   0  0  0  0  0  0  0  0  0  0  0  0
   29.6300   -9.9090    5.7440 O   0  0  0  0  0  0  0  0  0  0  0  0
   24.6660   -9.1940    8.4730 O   0  0  0  0  0  0  0  0  0  0  0  0
   27.7290  -10.8370    6.8790 C   0  0  0  0  0  0  0  0  0  0  0  0
   26.5040  -10.6770    7.5460 C   0  0  0  0  0  0  0  0  0  0  0  0
   27.9370   -8.4170    6.5020 C   0  0  0  0  0  0  0  0  0  0  0  0
   26.2280   -6.7690    7.3120 C   0  0  0  0  0  0  0  0  0  0  0  0
   28.4250   -9.7240    6.3820 C   0  0  0  0  0  0  0  0  0  0  0  0
   26.0310   -9.3650    7.6890 C   0  0  0  0  0  0  0  0  0  0  0  0
   26.7190   -8.2310    7.1720 C   0  0  0  0  0  0  0  0  0  0  0  0
  8  1  1  0
  8  2  2  0
  9  3  1  0
 10  4  1  0
  6  5  2  0
  9  5  1  0
 10  6  1  0
  9  7  2  0
 11  7  1  0
 11  8  1  0
 11 10  2  0
A    1
OAA
A    2
OAB
A    3
OAC
A    4
OAD
A    5
CAE
A    6
CAF
A    7
CAG
A    8
CAH
A    9
CAI
A   10
CAJ
A   11
CAK
M  END
>  <Id>  (112) 
4E3D_GTQ_A_304

>  <ChainId>  (112) 
A

>  <AsymId>  (112) 
E

>  <SeqNum>  (112) 
304

>  <Name>  (112) 
2,5-dihydroxybenzoic acid

>  <SystematicName>  (112) 
2,5-dihydroxybenzoic acid

>  <Synonyms>  (112) 


>  <Type>  (112) 
NON-POLYMER

>  <Formula>  (112) 
C7 H6 O4

>  <ObservedFormula>  (112) 
C7 O4

>  <MolecularWeight>  (112) 
154.12

>  <ModifiedDate>  (112) 
2011-06-04

>  <Parent>  (112) 


>  <OneLetterCode>  (112) 


>  <SubcomponentList>  (112) 


>  <AmbiguousFlag>  (112) 
N

>  <InsertionCode>  (112) 


>  <InstanceId>  (112) 
4E3D_GTQ_A_304

>  <ChemCompId>  (112) 
GTQ

>  <PdbId>  (112) 
4E3D

>  <ResidueNumber>  (112) 
304

>  <InChI>  (112) 
InChI=1S/C7H6O4/c8-4-1-2-6(9)5(3-4)7(10)11/h1-3,8-9H,(H,10,11)

>  <InChIKey>  (112) 
WXTMDXOMEHJXQO-UHFFFAOYSA-N

>  <SMILES>  (112) 
c1cc(c(cc1O)C(=O)O)O

>  <MissingHeavyAtoms>  (112) 
0

>  <Model>  (112) 
1

>  <AltIds>  (112) 


>  <pKI>  (112) 
5.39

>  <ChemblID>  (112) 
CHEMBL1461

>  <standardized_canonical_smiles>  (112) 
O=C(O)c1cc(O)ccc1O

$$$$
4BF6_X0Q_A_1263
     RDKit          3D

 22 24  0  0  0  0  0  0  0  0999 V2000
   -7.2930    1.0830   16.6780 O   0  0  0  0  0  0  0  0  0  0  0  0
   -5.8240    0.9810   16.7140 S   0  0  0  0  0  0  0  0  0  0  0  0
   -5.3670    1.0880   18.0810 O   0  0  0  0  0  0  0  0  0  0  0  0
   -5.3660   -0.4110   16.1120 N   0  0  0  0  0  0  0  0  0  0  0  0
   -5.1520    2.1870   15.6740 C   0  0  0  0  0  0  0  0  0  0  0  0
   -6.1350    3.4490   15.0440 S   0  0  0  0  0  0  0  0  0  0  0  0
   -4.8120    4.2460   14.2850 C   0  0  0  0  0  0  0  0  0  0  0  0
   -3.6290    3.5720   14.5050 C   0  0  0  0  0  0  0  0  0  0  0  0
   -3.8310    2.4610   15.3720 C   0  0  0  0  0  0  0  0  0  0  0  0
   -5.0730    5.4470   13.4290 C   0  0  0  0  0  0  0  0  0  0  0  0
   -4.1390    6.2530   12.8210 C   0  0  0  0  0  0  0  0  0  0  0  0
   -4.9810    7.1210   12.2010 N   0  0  0  0  0  0  0  0  0  0  0  0
   -6.3660    6.8580   12.3320 N   0  0  0  0  0  0  0  0  0  0  0  0
   -6.3870    5.7590   13.1540 N   0  0  0  0  0  0  0  0  0  0  0  0
   -4.5670    8.1700   11.4510 C   0  0  0  0  0  0  0  0  0  0  0  0
   -3.3160    8.2230   10.7940 C   0  0  0  0  0  0  0  0  0  0  0  0
   -2.9010    9.3520   10.0390 C   0  0  0  0  0  0  0  0  0  0  0  0
   -3.7370   10.4470    9.8950 C   0  0  0  0  0  0  0  0  0  0  0  0
   -4.9950   10.4150   10.5190 C   0  0  0  0  0  0  0  0  0  0  0  0
   -5.3910    9.2980   11.2890 C   0  0  0  0  0  0  0  0  0  0  0  0
   -5.7720   11.4470   10.4530 C   0  0  0  0  0  0  0  0  0  0  0  0
   -6.4590   12.3850   10.4280 N   0  0  0  0  0  0  0  0  0  0  0  0
  2  1  2  0
  3  2  2  0
  4  2  1  0
  5  2  1  0
  6  5  1  0
  9  5  2  0
  7  6  1  0
  8  7  2  0
 10  7  1  0
  9  8  1  0
 11 10  2  0
 14 10  1  0
 12 11  1  0
 13 12  1  0
 15 12  1  0
 14 13  2  0
 16 15  2  0
 20 15  1  0
 17 16  1  0
 18 17  2  0
 19 18  1  0
 20 19  2  0
 21 19  1  0
 22 21  3  0
A    1
O22
A    2
S21
A    3
O23
A    4
N24
A    5
C19
A    6
S20
A    7
C16
A    8
C17
A    9
C18
A   10
C14
A   11
C15
A   12
N11
A   13
N12
A   14
N13
A   15
C10
A   16
C9
A   17
C8
A   18
C7
A   19
C4
A   20
C3
A   21
C5
A   22
N22
M  END
>  <Id>  (113) 
4BF6_X0Q_A_1263

>  <ChainId>  (113) 
A

>  <AsymId>  (113) 
C

>  <SeqNum>  (113) 
1263

>  <Name>  (113) 
5-[1-(3-cyanophenyl)-1,2,3-triazol-4-yl]thiophene-2-sulfonamide

>  <SystematicName>  (113) 
5-[1-(3-cyanophenyl)-1,2,3-triazol-4-yl]thiophene-2-sulfonamide

>  <Synonyms>  (113) 


>  <Type>  (113) 
non-polymer

>  <Formula>  (113) 
C13 H9 N5 O2 S2

>  <ObservedFormula>  (113) 
S2 C13 N5 O2

>  <MolecularWeight>  (113) 
331.373

>  <ModifiedDate>  (113) 
2014-09-05

>  <Parent>  (113) 


>  <OneLetterCode>  (113) 


>  <SubcomponentList>  (113) 


>  <AmbiguousFlag>  (113) 
N

>  <InsertionCode>  (113) 


>  <InstanceId>  (113) 
4BF6_X0Q_A_1263

>  <ChemCompId>  (113) 
X0Q

>  <PdbId>  (113) 
4BF6

>  <ResidueNumber>  (113) 
1263

>  <InChI>  (113) 
InChI=1S/C13H9N5O2S2/c14-7-9-2-1-3-10(6-9)18-8-11(16-17-18)12-4-5-13(21-12)22(15,19)20/h1-6,8H,(H2,15,19,20)

>  <InChIKey>  (113) 
SUOSUWXLPRQCMG-UHFFFAOYSA-N

>  <SMILES>  (113) 
c1cc(cc(c1)n2cc(nn2)c3ccc(s3)S(=O)(=O)N)C#N

>  <MissingHeavyAtoms>  (113) 
0

>  <Model>  (113) 
1

>  <AltIds>  (113) 


>  <pKI>  (113) 
8.35

>  <ChemblID>  (113) 
CHEMBL2414070

>  <standardized_canonical_smiles>  (113) 
N#Cc1cccc(-n2cc(-c3ccc(S(N)(=O)=O)s3)nn2)c1

$$$$
4BF1_9FK_A_271
     RDKit          3D

 24 27  0  0  0  0  0  0  0  0999 V2000
   -7.6010    0.8800   16.9280 O   0  0  0  0  0  0  0  0  0  0  0  0
   -6.1270    0.8910   16.9860 S   0  0  0  0  0  0  0  0  0  0  0  0
   -5.4990    1.0010   18.2510 O   0  0  0  0  0  0  0  0  0  0  0  0
   -5.5400   -0.4170   16.2370 N   0  0  0  0  0  0  0  0  0  0  0  0
   -5.7160    2.3600   16.1880 C   0  0  0  0  0  0  0  0  0  0  0  0
   -4.1700    2.7740   15.5350 S   0  0  0  0  0  0  0  0  0  0  0  0
   -4.6440    4.2940   15.0120 C   0  0  0  0  0  0  0  0  0  0  0  0
   -5.9930    4.5040   15.2910 C   0  0  0  0  0  0  0  0  0  0  0  0
   -6.6210    3.4210   15.8850 C   0  0  0  0  0  0  0  0  0  0  0  0
   -3.8030    5.2990   14.3490 C   0  0  0  0  0  0  0  0  0  0  0  0
   -2.4330    5.2110   14.1480 C   0  0  0  0  0  0  0  0  0  0  0  0
   -2.1700    6.4300   13.5980 N   0  0  0  0  0  0  0  0  0  0  0  0
   -3.2820    7.2370   13.4820 N   0  0  0  0  0  0  0  0  0  0  0  0
   -4.3310    6.5160   13.9870 N   0  0  0  0  0  0  0  0  0  0  0  0
   -0.9730    6.8740   13.1380 C   0  0  0  0  0  0  0  0  0  0  0  0
   -0.3180    6.3340   12.0690 C   0  0  0  0  0  0  0  0  0  0  0  0
    0.9290    6.7310   11.6180 C   0  0  0  0  0  0  0  0  0  0  0  0
    1.5650    7.8390   12.1880 C   0  0  0  0  0  0  0  0  0  0  0  0
    0.8930    8.5410   13.1920 C   0  0  0  0  0  0  0  0  0  0  0  0
   -0.3740    8.0780   13.7480 C   0  0  0  0  0  0  0  0  0  0  0  0
    1.4720    9.6460   13.7680 C   0  0  0  0  0  0  0  0  0  0  0  0
    0.8790   10.3110   14.8390 C   0  0  0  0  0  0  0  0  0  0  0  0
   -0.3560    9.8880   15.3250 C   0  0  0  0  0  0  0  0  0  0  0  0
   -0.9760    8.7660   14.7930 C   0  0  0  0  0  0  0  0  0  0  0  0
  2  1  2  0
  3  2  2  0
  4  2  1  0
  5  2  1  0
  6  5  1  0
  9  5  2  0
  7  6  1  0
  8  7  2  0
 10  7  1  0
  9  8  1  0
 11 10  2  0
 14 10  1  0
 12 11  1  0
 13 12  1  0
 15 12  1  0
 14 13  2  0
 16 15  2  0
 20 15  1  0
 17 16  1  0
 18 17  2  0
 19 18  1  0
 20 19  2  0
 21 19  1  0
 24 20  1  0
 22 21  2  0
 23 22  1  0
 24 23  2  0
A    1
O22
A    2
S21
A    3
O23
A    4
N24
A    5
C19
A    6
S20
A    7
C16
A    8
C17
A    9
C18
A   10
C14
A   11
C15
A   12
N11
A   13
N12
A   14
N13
A   15
C10
A   16
C9
A   17
C8
A   18
C7
A   19
C4
A   20
C3
A   21
C5
A   22
C6
A   23
C1
A   24
C2
M  END
>  <Id>  (114) 
4BF1_9FK_A_271

>  <ChainId>  (114) 
A

>  <AsymId>  (114) 
C

>  <SeqNum>  (114) 
271

>  <Name>  (114) 
5-(1-naphthalen-1-yl-1,2,3-triazol-4-yl)thiophene-2-sulfonamide

>  <SystematicName>  (114) 
5-(1-naphthalen-1-yl-1,2,3-triazol-4-yl)thiophene-2-sulfonamide

>  <Synonyms>  (114) 


>  <Type>  (114) 
non-polymer

>  <Formula>  (114) 
C16 H12 N4 O2 S2

>  <ObservedFormula>  (114) 
S2 C16 N4 O2

>  <MolecularWeight>  (114) 
356.422

>  <ModifiedDate>  (114) 
2014-09-05

>  <Parent>  (114) 


>  <OneLetterCode>  (114) 


>  <SubcomponentList>  (114) 


>  <AmbiguousFlag>  (114) 
N

>  <InsertionCode>  (114) 


>  <InstanceId>  (114) 
4BF1_9FK_A_271

>  <ChemCompId>  (114) 
9FK

>  <PdbId>  (114) 
4BF1

>  <ResidueNumber>  (114) 
271

>  <InChI>  (114) 
InChI=1S/C16H12N4O2S2/c17-24(21,22)16-9-8-15(23-16)13-10-20(19-18-13)14-7-3-5-11-4-1-2-6-12(11)14/h1-10H,(H2,17,21,22)

>  <InChIKey>  (114) 
KNFVNHRBTIJTNM-UHFFFAOYSA-N

>  <MissingHeavyAtoms>  (114) 
0

>  <Model>  (114) 
1

>  <AltIds>  (114) 


>  <pKI>  (114) 
8.62

>  <ChemblID>  (114) 
CHEMBL2414068

>  <standardized_canonical_smiles>  (114) 
NS(=O)(=O)c1ccc(-c2cn(-c3cccc4ccccc34)nn2)s1

$$$$
2F14_FL1_A_1270
     RDKit          3D

 41 45  0  0  0  0  0  0  0  0999 V2000
   -6.0170    0.8830   16.9160 S   0  0  0  0  0  0  0  0  0  0  0  0
   -5.4540    0.9950   18.2440 O   0  0  0  0  0  0  0  0  0  0  0  0
   -7.4500    0.9470   16.7760 O   0  0  0  0  0  0  0  0  0  0  0  0
   -5.4910   -0.4950   16.2830 N   0  0  0  0  0  0  0  0  0  0  0  0
   -5.3360    2.2130   15.9410 C   0  0  0  0  0  0  0  0  0  0  0  0
   -3.9700    2.1580   15.5950 C   0  0  0  0  0  0  0  0  0  0  0  0
   -3.4470    3.1770   14.8490 C   0  0  0  0  0  0  0  0  0  0  0  0
   -4.2280    4.2830   14.4130 C   0  0  0  0  0  0  0  0  0  0  0  0
   -5.6000    4.3130   14.7760 C   0  0  0  0  0  0  0  0  0  0  0  0
   -6.1670    3.3020   15.5300 C   0  0  0  0  0  0  0  0  0  0  0  0
   -3.6050    5.4090   13.5710 C   0  0  0  0  0  0  0  0  0  0  0  0
   -2.0780    5.4040   13.5800 C   0  0  0  0  0  0  0  0  0  0  0  0
   -1.5350    6.5750   12.9370 N   0  0  0  0  0  0  0  0  0  0  0  0
   -1.6710    7.8110   13.3790 C   0  0  0  0  0  0  0  0  0  0  0  0
   -1.7480    8.1870   15.0220 S   0  0  0  0  0  0  0  0  0  0  0  0
   -1.7370    8.7430   12.3950 N   0  0  0  0  0  0  0  0  0  0  0  0
   -1.8810   10.1570   12.3350 C   0  0  0  0  0  0  0  0  0  0  0  0
   -1.8400   10.9270   13.5150 C   0  0  0  0  0  0  0  0  0  0  0  0
   -1.9750   12.3220   13.4600 C   0  0  0  0  0  0  0  0  0  0  0  0
   -2.1570   12.9850   12.2010 C   0  0  0  0  0  0  0  0  0  0  0  0
   -2.2040   12.1930   10.9850 C   0  0  0  0  0  0  0  0  0  0  0  0
   -2.0630   10.7960   11.0930 C   0  0  0  0  0  0  0  0  0  0  0  0
   -2.4000   12.7950    9.5900 C   0  0  0  0  0  0  0  0  0  0  0  0
   -1.6190   13.7140    9.2340 O   0  0  0  0  0  0  0  0  0  0  0  0
   -3.3300   12.3500    8.8780 O   0  0  0  0  0  0  0  0  0  0  0  0
   -2.2900   14.5180   12.2490 C   0  0  0  0  0  0  0  0  0  0  0  0
    0.2270   14.9040   12.7600 C   0  0  0  0  0  0  0  0  0  0  0  0
    1.2670   15.7830   13.0060 C   0  0  0  0  0  0  0  0  0  0  0  0
    1.0700   17.2170   13.0330 C   0  0  0  0  0  0  0  0  0  0  0  0
   -0.2630   17.7010   12.7900 C   0  0  0  0  0  0  0  0  0  0  0  0
   -4.8660   17.2590   11.8590 C   0  0  0  0  0  0  0  0  0  0  0  0
   -6.0720   16.5200   11.5890 C   0  0  0  0  0  0  0  0  0  0  0  0
   -6.0000   15.0520   11.5430 C   0  0  0  0  0  0  0  0  0  0  0  0
   -4.8090   14.4030   11.7520 C   0  0  0  0  0  0  0  0  0  0  0  0
   -3.5590   15.1320   12.0250 C   0  0  0  0  0  0  0  0  0  0  0  0
   -3.6700   16.5820   12.0690 C   0  0  0  0  0  0  0  0  0  0  0  0
   -1.1340   15.3640   12.5110 C   0  0  0  0  0  0  0  0  0  0  0  0
   -1.3030   16.8080   12.5460 C   0  0  0  0  0  0  0  0  0  0  0  0
   -2.5510   17.3670   12.3210 O   0  0  0  0  0  0  0  0  0  0  0  0
    2.0890   18.0230   13.2700 O   0  0  0  0  0  0  0  0  0  0  0  0
   -7.1920   17.1060   11.3890 O   0  0  0  0  0  0  0  0  0  0  0  0
  2  1  2  0
  3  1  2  0
  4  1  1  0
  5  1  1  0
  6  5  2  0
 10  5  1  0
  7  6  1  0
  8  7  2  0
  9  8  1  0
 11  8  1  0
 10  9  2  0
 12 11  1  0
 13 12  1  0
 14 13  1  0
 15 14  2  0
 16 14  1  0
 17 16  1  0
 18 17  2  0
 22 17  1  0
 19 18  1  0
 20 19  2  0
 21 20  1  0
 26 20  1  0
 22 21  2  0
 23 21  1  0
 24 23  2  0
 25 23  1  0
 35 26  1  0
 37 26  2  0
 28 27  2  0
 37 27  1  0
 29 28  1  0
 30 29  1  0
 40 29  2  0
 38 30  2  0
 32 31  1  0
 36 31  2  0
 33 32  2  0
 41 32  1  0
 34 33  1  0
 35 34  2  0
 36 35  1  0
 39 36  1  0
 38 37  1  0
 39 38  1  0
A    1
S1
A    2
O1
A    3
O2
A    4
N1
A    5
C1
A    6
C2
A    7
C3
A    8
C4
A    9
C5
A   10
C6
A   11
C7
A   12
C29
A   13
N2
A   14
C8
A   15
S2
A   16
N3
A   17
C9
A   18
C10
A   19
C11
A   20
C12
A   21
C13
A   22
C14
A   23
C15
A   24
O3
A   25
O4
A   26
C16
A   27
C17
A   28
C18
A   29
C19
A   30
C20
A   31
C21
A   32
C22
A   33
C23
A   34
C24
A   35
C25
A   36
C26
A   37
C27
A   38
C28
A   39
O5
A   40
O6
A   41
O7
M  END
>  <Id>  (115) 
2F14_FL1_A_1270

>  <ChainId>  (115) 
A

>  <AsymId>  (115) 
D

>  <SeqNum>  (115) 
1270

>  <Name>  (115) 
5-{[({2-[4-(AMINOSULFONYL)PHENYL]ETHYL}AMINO)CARBONOTHIOYL]AMINO}-2-(6-HYDROXY-3-OXO-3H-XANTHEN-9-YL)BENZOIC ACID

>  <SystematicName>  (115) 
2-(3-hydroxy-6-oxo-xanthen-9-yl)-5-[2-(4-sulfamoylphenyl)ethylcarbamothioylamino]benzoic acid

>  <Synonyms>  (115) 
(4-SULFAMOYLPHENYLETHYLTHIOUREIDO)FLUORESCEIN

>  <Type>  (115) 
NON-POLYMER

>  <Formula>  (115) 
C29 H23 N3 O7 S2

>  <ObservedFormula>  (115) 
S2 C29 N3 O7

>  <MolecularWeight>  (115) 
589.639

>  <ModifiedDate>  (115) 
2011-06-04

>  <Parent>  (115) 


>  <OneLetterCode>  (115) 


>  <SubcomponentList>  (115) 


>  <AmbiguousFlag>  (115) 
N

>  <InsertionCode>  (115) 


>  <InstanceId>  (115) 
2F14_FL1_A_1270

>  <ChemCompId>  (115) 
FL1

>  <PdbId>  (115) 
2F14

>  <ResidueNumber>  (115) 
1270

>  <InChI>  (115) 
InChI=1S/C29H23N3O7S2/c30-41(37,38)20-6-1-16(2-7-20)11-12-31-29(40)32-17-3-8-21(24(13-17)28(35)36)27-22-9-4-18(33)14-25(22)39-26-15-19(34)5-10-23(26)27/h1-10,13-15,33H,11-12H2,(H,35,36)(H2,30,37,38)(H2,31,32,40)

>  <InChIKey>  (115) 
ZXJGFVGTIKDQMI-UHFFFAOYSA-N

>  <SMILES>  (115) 
c1cc(ccc1CCNC(=S)Nc2ccc(c(c2)C(=O)O)C3=C4C=CC(=O)C=C4Oc5c3ccc(c5)O)S(=O)(=O)N

>  <MissingHeavyAtoms>  (115) 
0

>  <Model>  (115) 
1

>  <AltIds>  (115) 


>  <pKI>  (115) 
7.35

>  <ChemblID>  (115) 
CHEMBL1232755

>  <standardized_canonical_smiles>  (115) 
NS(=O)(=O)c1ccc(CCNC(=S)Nc2ccc(-c3c4ccc(=O)cc-4oc4cc(O)ccc34)c(C(=O)O)c2)cc1

$$$$
4KNI_E1E_A_305
     RDKit          3D

 23 24  0  0  0  0  0  0  0  0999 V2000
   -4.6610    4.5110   15.3810 C   0  0  0  0  0  0  0  0  0  0  0  0
   -4.9710    2.1360   15.8480 C   0  0  0  0  0  0  0  0  0  0  0  0
   -3.9930    1.7890   14.8900 C   0  0  0  0  0  0  0  0  0  0  0  0
   -6.5620    3.8820   17.2580 Cl  0  0  0  0  0  0  0  0  0  0  0  0
   -5.3380    3.4830   16.0700 C   0  0  0  0  0  0  0  0  0  0  0  0
   -5.7490    0.7870   16.7790 S   0  0  0  0  0  0  0  0  0  0  0  0
   -7.3190    0.8280   16.5880 O   0  0  0  0  0  0  0  0  0  0  0  0
   -5.0300   -0.6720   16.1440 N   0  0  0  0  0  0  0  0  0  0  0  0
   -5.2350    0.9220   18.3090 O   0  0  0  0  0  0  0  0  0  0  0  0
   -3.6260    4.1880   14.4460 C   0  0  0  0  0  0  0  0  0  0  0  0
   -3.2980    2.8250   14.1970 C   0  0  0  0  0  0  0  0  0  0  0  0
   -2.8360    5.2590   13.7730 C   0  0  0  0  0  0  0  0  0  0  0  0
   -2.6360    6.3170   14.4250 O   0  0  0  0  0  0  0  0  0  0  0  0
   -2.1370    5.0870   12.4620 C   0  0  0  0  0  0  0  0  0  0  0  0
   -2.0540    6.7070   11.6580 S   0  0  0  0  0  0  0  0  0  0  0  0
   -3.8120    7.0040   11.5410 C   0  0  0  0  0  0  0  0  0  0  0  0
   -4.6780    6.1550   12.2110 N   0  0  0  0  0  0  0  0  0  0  0  0
   -6.0110    6.3510   12.1140 C   0  0  0  0  0  0  0  0  0  0  0  0
   -6.8820    5.3830   12.8300 C   0  0  0  0  0  0  0  0  0  0  0  0
   -6.5020    7.4360   11.3480 C   0  0  0  0  0  0  0  0  0  0  0  0
   -5.5920    8.3030   10.6980 C   0  0  0  0  0  0  0  0  0  0  0  0
   -4.2560    8.0770   10.8050 N   0  0  0  0  0  0  0  0  0  0  0  0
   -6.0470    9.4680    9.8820 C   0  0  0  0  0  0  0  0  0  0  0  0
  5  1  2  0
 10  1  1  0
  3  2  2  0
  5  2  1  0
  6  2  1  0
 11  3  1  0
  5  4  1  0
  7  6  2  0
  8  6  1  0
  9  6  2  0
 11 10  2  0
 12 10  1  0
 13 12  2  0
 14 12  1  0
 15 14  1  0
 16 15  1  0
 17 16  2  0
 22 16  1  0
 18 17  1  0
 19 18  1  0
 20 18  2  0
 21 20  1  0
 22 21  2  0
 23 21  1  0
A    1
C2
A    2
C4
A    3
C5
A    4
CL1
A    5
C3
A    6
S6
A    7
O8
A    8
N11
A    9
O7
A   10
C22
A   11
C1
A   12
C9
A   13
O12
A   14
C10
A   15
S13
A   16
C14
A   17
N17
A   18
C18
A   19
C21
A   20
C19
A   21
C16
A   22
N15
A   23
C20
M  END
>  <Id>  (116) 
4KNI_E1E_A_305

>  <ChainId>  (116) 
A

>  <AsymId>  (116) 
F

>  <SeqNum>  (116) 
305

>  <Name>  (116) 
2-chloro-4-{[(4,6-dimethylpyrimidin-2-yl)sulfanyl]acetyl}benzenesulfonamide

>  <SystematicName>  (116) 
2-chloranyl-4-[2-(4,6-dimethylpyrimidin-2-yl)sulfanylethanoyl]benzenesulfonamide

>  <Synonyms>  (116) 


>  <Type>  (116) 
NON-POLYMER

>  <Formula>  (116) 
C14 H14 Cl N3 O3 S2

>  <ObservedFormula>  (116) 
C14 S2 Cl N3 O3

>  <MolecularWeight>  (116) 
371.862

>  <ModifiedDate>  (116) 
2013-11-01

>  <Parent>  (116) 


>  <OneLetterCode>  (116) 


>  <SubcomponentList>  (116) 


>  <AmbiguousFlag>  (116) 
N

>  <InsertionCode>  (116) 


>  <InstanceId>  (116) 
4KNI_E1E_A_305

>  <ChemCompId>  (116) 
E1E

>  <PdbId>  (116) 
4KNI

>  <ResidueNumber>  (116) 
305

>  <InChI>  (116) 
InChI=1S/C14H14ClN3O3S2/c1-8-5-9(2)18-14(17-8)22-7-12(19)10-3-4-13(11(15)6-10)23(16,20)21/h3-6H,7H2,1-2H3,(H2,16,20,21)

>  <InChIKey>  (116) 
XWPREILQIYDJMT-UHFFFAOYSA-N

>  <SMILES>  (116) 
Cc1cc(nc(n1)SCC(=O)c2ccc(c(c2)Cl)S(=O)(=O)N)C

>  <MissingHeavyAtoms>  (116) 
0

>  <Model>  (116) 
1

>  <AltIds>  (116) 


>  <pKI>  (116) 
7.96

>  <ChemblID>  (116) 
CHEMBL2443204

>  <standardized_canonical_smiles>  (116) 
Cc1cc(C)nc(SCC(=O)c2ccc(S(N)(=O)=O)c(Cl)c2)n1

$$$$
5O07_1VQ_A_302
     RDKit          3D

 16 16  0  0  0  0  0  0  0  0999 V2000
   -5.6990    1.0030   16.5260 S   0  0  0  0  0  0  0  0  0  0  0  0
   -4.9670    1.3680   17.6980 O   0  0  0  0  0  0  0  0  0  0  0  0
   -7.1270    1.1020   16.5310 O   0  0  0  0  0  0  0  0  0  0  0  0
   -5.1920    1.9710   15.3980 O   0  0  0  0  0  0  0  0  0  0  0  0
   -5.2840   -0.4870   16.1330 N   0  0  0  0  0  0  0  0  0  0  0  0
   -3.8970    1.7410   14.7680 C   0  0  0  0  0  0  0  0  0  0  0  0
   -3.9110    2.4600   13.4620 C   0  0  0  0  0  0  0  0  0  0  0  0
   -3.4860    6.0360   13.9320 N   0  0  0  0  0  0  0  0  0  0  0  0
   -6.4640    4.2320   13.0820 N   0  0  0  0  0  0  0  0  0  0  0  0
   -5.1850    4.6920   13.4600 C   0  0  0  0  0  0  0  0  0  0  0  0
   -4.8130    5.9910   13.6840 C   0  0  0  0  0  0  0  0  0  0  0  0
   -3.0460    4.7940   13.8650 C   0  0  0  0  0  0  0  0  0  0  0  0
   -1.6520    4.4080   14.1320 C   0  0  0  0  0  0  0  0  0  0  0  0
   -4.0490    3.9170   13.5870 N   0  0  0  0  0  0  0  0  0  0  0  0
   -7.3750    5.0610   13.0420 O   0  0  0  0  0  0  0  0  0  0  0  0
   -6.6100    3.0680   12.7180 O   0  0  0  0  0  0  0  0  0  0  0  0
  2  1  2  0
  3  1  2  0
  4  1  1  0
  5  1  1  0
  6  4  1  0
  7  6  1  0
 14  7  1  0
 11  8  1  0
 12  8  2  0
 10  9  1  0
 15  9  1  0
 16  9  2  0
 11 10  2  0
 14 10  1  0
 13 12  1  0
 14 12  1  0
M  CHG  2   9   1  15  -1
A    1
S1
A    2
O1
A    3
O2
A    4
O3
A    5
N1
A    6
C1
A    7
C2
A    8
N3
A    9
N4
A   10
C3
A   11
C4
A   12
C5
A   13
C6
A   14
N2
A   15
O4
A   16
O5
M  END
>  <Id>  (117) 
5O07_1VQ_A_302

>  <ChainId>  (117) 
A

>  <AsymId>  (117) 
C

>  <SeqNum>  (117) 
302

>  <Name>  (117) 
2-(2-methyl-5-nitro-1H-imidazol-1-yl)ethyl sulfamate

>  <SystematicName>  (117) 
2-(2-methyl-5-nitro-imidazol-1-yl)ethyl sulfamate

>  <Synonyms>  (117) 


>  <Type>  (117) 
NON-POLYMER

>  <Formula>  (117) 
C6 H10 N4 O5 S

>  <ObservedFormula>  (117) 
S C6 N4 O5

>  <MolecularWeight>  (117) 
250.232

>  <ModifiedDate>  (117) 
2017-07-28

>  <Parent>  (117) 


>  <OneLetterCode>  (117) 


>  <SubcomponentList>  (117) 


>  <AmbiguousFlag>  (117) 
N

>  <InsertionCode>  (117) 


>  <InstanceId>  (117) 
5O07_1VQ_A_302

>  <ChemCompId>  (117) 
1VQ

>  <PdbId>  (117) 
5O07

>  <ResidueNumber>  (117) 
302

>  <InChI>  (117) 
InChI=1S/C6H10N4O5S/c1-5-8-4-6(10(11)12)9(5)2-3-15-16(7,13)14/h4H,2-3H2,1H3,(H2,7,13,14)

>  <InChIKey>  (117) 
PBAHHCUVLKOILA-UHFFFAOYSA-N

>  <SMILES>  (117) 
Cc1ncc(n1CCOS(=O)(=O)N)[N+](=O)[O-]

>  <MissingHeavyAtoms>  (117) 
0

>  <Model>  (117) 
1

>  <AltIds>  (117) 


>  <pKI>  (117) 
7.47

>  <ChemblID>  (117) 
CHEMBL3085793

>  <standardized_canonical_smiles>  (117) 
Cc1ncc([N+](=O)[O-])n1CCOS(N)(=O)=O

$$$$
4MO8_2VQ_A_302
     RDKit          3D

 16 16  0  0  0  0  0  0  0  0999 V2000
   -5.2720    1.0160   16.3920 S   0  0  0  0  0  0  0  0  0  0  0  0
   -4.6950    1.3190   17.6640 O   0  0  0  0  0  0  0  0  0  0  0  0
   -6.6160    1.4200   16.1170 O   0  0  0  0  0  0  0  0  0  0  0  0
   -4.2660    1.7550   15.3610 N   0  0  0  0  0  0  0  0  0  0  0  0
   -4.3770    1.4240   13.9240 C   0  0  0  0  0  0  0  0  0  0  0  0
   -4.7620    2.6430   13.1590 C   0  0  0  0  0  0  0  0  0  0  0  0
   -3.0370    5.6360   14.2580 N   0  0  0  0  0  0  0  0  0  0  0  0
   -1.8430    3.0400   12.0910 N   0  0  0  0  0  0  0  0  0  0  0  0
   -2.5170    3.8890   12.9950 C   0  0  0  0  0  0  0  0  0  0  0  0
   -2.0460    5.0460   13.5560 C   0  0  0  0  0  0  0  0  0  0  0  0
   -4.0960    4.8550   14.1470 C   0  0  0  0  0  0  0  0  0  0  0  0
   -5.3780    5.0870   14.8300 C   0  0  0  0  0  0  0  0  0  0  0  0
   -3.8330    3.7600   13.3880 N   0  0  0  0  0  0  0  0  0  0  0  0
   -0.6440    3.2610   11.9030 O   0  0  0  0  0  0  0  0  0  0  0  0
   -2.4650    2.1620   11.4940 O   0  0  0  0  0  0  0  0  0  0  0  0
   -5.1640   -0.5580   16.1400 N   0  0  0  0  0  0  0  0  0  0  0  0
  2  1  2  0
  3  1  2  0
  4  1  1  0
 16  1  1  0
  5  4  1  0
  6  5  1  0
 13  6  1  0
 10  7  1  0
 11  7  2  0
  9  8  1  0
 14  8  1  0
 15  8  2  0
 10  9  2  0
 13  9  1  0
 12 11  1  0
 13 11  1  0
M  CHG  2   8   1  14  -1
A    1
S1
A    2
O1
A    3
O2
A    4
N5
A    5
C1
A    6
C2
A    7
N3
A    8
N4
A    9
C3
A   10
C4
A   11
C5
A   12
C6
A   13
N2
A   14
O4
A   15
O5
A   16
N1
M  END
>  <Id>  (118) 
4MO8_2VQ_A_302

>  <ChainId>  (118) 
A

>  <AsymId>  (118) 
C

>  <SeqNum>  (118) 
302

>  <Name>  (118) 
N-[2-(2-methyl-5-nitro-1H-imidazol-1-yl)ethyl]sulfamide

>  <SystematicName>  (118) 
2-methyl-5-nitro-1-[2-(sulfamoylamino)ethyl]imidazole

>  <Synonyms>  (118) 


>  <Type>  (118) 
NON-POLYMER

>  <Formula>  (118) 
C6 H11 N5 O4 S

>  <ObservedFormula>  (118) 
S C6 N5 O4

>  <MolecularWeight>  (118) 
249.248

>  <ModifiedDate>  (118) 
2013-10-25

>  <Parent>  (118) 


>  <OneLetterCode>  (118) 


>  <SubcomponentList>  (118) 


>  <AmbiguousFlag>  (118) 
N

>  <InsertionCode>  (118) 


>  <InstanceId>  (118) 
4MO8_2VQ_A_302

>  <ChemCompId>  (118) 
2VQ

>  <PdbId>  (118) 
4MO8

>  <ResidueNumber>  (118) 
302

>  <InChI>  (118) 
InChI=1S/C6H11N5O4S/c1-5-8-4-6(11(12)13)10(5)3-2-9-16(7,14)15/h4,9H,2-3H2,1H3,(H2,7,14,15)

>  <InChIKey>  (118) 
AVSMSXHPIYIKIJ-UHFFFAOYSA-N

>  <SMILES>  (118) 
Cc1ncc(n1CCNS(=O)(=O)N)[N+](=O)[O-]

>  <MissingHeavyAtoms>  (118) 
0

>  <Model>  (118) 
1

>  <AltIds>  (118) 


>  <pKI>  (118) 
8.0

>  <ChemblID>  (118) 
CHEMBL3087323

>  <standardized_canonical_smiles>  (118) 
Cc1ncc([N+](=O)[O-])n1CCNS(N)(=O)=O

$$$$
3KIG_DA4_A_504
     RDKit          3D

 12 12  0  0  0  0  0  0  0  0999 V2000
   15.8080    1.4990   16.2230 N   0  0  0  0  0  0  0  0  0  0  0  0
   15.2820    2.9280   16.8670 S   0  0  0  0  0  0  0  0  0  0  0  0
   15.8590    3.0520   18.1970 O   0  0  0  0  0  0  0  0  0  0  0  0
   13.8550    3.0030   16.7950 O   0  0  0  0  0  0  0  0  0  0  0  0
   15.9590    4.2240   15.8500 C   0  0  0  0  0  0  0  0  0  0  0  0
   15.1460    5.1790   15.2430 C   0  0  0  0  0  0  0  0  0  0  0  0
   15.7450    6.1760   14.4620 C   0  0  0  0  0  0  0  0  0  0  0  0
   17.1350    6.1760   14.3050 C   0  0  0  0  0  0  0  0  0  0  0  0
   17.9370    5.2070   14.9250 C   0  0  0  0  0  0  0  0  0  0  0  0
   17.3450    4.2040   15.6990 C   0  0  0  0  0  0  0  0  0  0  0  0
   14.9940    7.2200   13.7900 C   0  0  0  0  0  0  0  0  0  0  0  0
   14.7920    8.1910   13.0770 C   0  0  0  0  0  0  0  0  0  0  0  0
  2  1  1  0
  3  2  2  0
  4  2  2  0
  5  2  1  0
  6  5  2  0
 10  5  1  0
  7  6  1  0
  8  7  2  0
 11  7  1  0
  9  8  1  0
 10  9  2  0
 12 11  3  0
A    1
N1
A    2
S2
A    3
O3
A    4
O4
A    5
C5
A    6
C6
A    7
C7
A    8
C8
A    9
C9
A   10
C10
A   11
C11
A   12
C12
M  END
>  <Id>  (119) 
3KIG_DA4_A_504

>  <ChainId>  (119) 
A

>  <AsymId>  (119) 
D

>  <SeqNum>  (119) 
504

>  <Name>  (119) 
3-ethynylbenzenesulfonamide

>  <SystematicName>  (119) 
3-ethynylbenzenesulfonamide

>  <Synonyms>  (119) 


>  <Type>  (119) 
NON-POLYMER

>  <Formula>  (119) 
C8 H7 N O2 S

>  <ObservedFormula>  (119) 
S C8 N O2

>  <MolecularWeight>  (119) 
181.212

>  <ModifiedDate>  (119) 
2011-06-04

>  <Parent>  (119) 


>  <OneLetterCode>  (119) 


>  <SubcomponentList>  (119) 


>  <AmbiguousFlag>  (119) 
N

>  <InsertionCode>  (119) 


>  <InstanceId>  (119) 
3KIG_DA4_A_504

>  <ChemCompId>  (119) 
DA4

>  <PdbId>  (119) 
3KIG

>  <ResidueNumber>  (119) 
504

>  <InChI>  (119) 
InChI=1S/C8H7NO2S/c1-2-7-4-3-5-8(6-7)12(9,10)11/h1,3-6H,(H2,9,10,11)

>  <InChIKey>  (119) 
WGEWFHNQCHZZMF-UHFFFAOYSA-N

>  <SMILES>  (119) 
C#Cc1cccc(c1)S(=O)(=O)N

>  <MissingHeavyAtoms>  (119) 
0

>  <Model>  (119) 
1

>  <AltIds>  (119) 


>  <pKI>  (119) 
7.18

>  <ChemblID>  (119) 
CHEMBL1232090

>  <standardized_canonical_smiles>  (119) 
C#Cc1cccc(S(N)(=O)=O)c1

$$$$
4KV0_MB7_A_304
     RDKit          3D

 24 25  0  0  0  0  0  0  0  0999 V2000
   -1.7950   12.0740   14.3560 C   0  0  0  0  0  0  0  0  0  0  0  0
   -1.6730   11.0280   13.6080 C   0  0  0  0  0  0  0  0  0  0  0  0
   -2.2200   10.9070   12.3340 C   0  0  0  0  0  0  0  0  0  0  0  0
   -2.1200    9.7060   11.6310 C   0  0  0  0  0  0  0  0  0  0  0  0
   -1.0150    9.9420   14.1840 C   0  0  0  0  0  0  0  0  0  0  0  0
   -0.9100    8.7430   13.4860 C   0  0  0  0  0  0  0  0  0  0  0  0
   -1.4640    8.6200   12.2080 C   0  0  0  0  0  0  0  0  0  0  0  0
   -1.3170    7.2370   11.4390 S   0  0  0  0  0  0  0  0  0  0  0  0
   -2.2620    7.0780   10.3730 O   0  0  0  0  0  0  0  0  0  0  0  0
    0.0090    7.0850   10.9200 O   0  0  0  0  0  0  0  0  0  0  0  0
   -1.4500    6.0910   12.5490 N   0  0  0  0  0  0  0  0  0  0  0  0
   -2.6090    5.6840   13.0710 C   0  0  0  0  0  0  0  0  0  0  0  0
   -3.6790    6.1160   12.7020 O   0  0  0  0  0  0  0  0  0  0  0  0
   -2.4640    4.7440   14.0070 N   0  0  0  0  0  0  0  0  0  0  0  0
   -3.4180    3.9500   14.5830 C   0  0  0  0  0  0  0  0  0  0  0  0
   -2.8610    2.9570   15.3700 C   0  0  0  0  0  0  0  0  0  0  0  0
   -3.6650    2.0510   16.0230 C   0  0  0  0  0  0  0  0  0  0  0  0
   -4.8210    3.9920   14.4600 C   0  0  0  0  0  0  0  0  0  0  0  0
   -5.5980    3.0760   15.1200 N   0  0  0  0  0  0  0  0  0  0  0  0
   -5.0380    2.0960   15.9090 C   0  0  0  0  0  0  0  0  0  0  0  0
   -5.8360    0.9360   16.7240 S   0  0  0  0  0  0  0  0  0  0  0  0
   -7.2520    1.0820   16.5290 O   0  0  0  0  0  0  0  0  0  0  0  0
   -5.4860    0.9970   18.1120 O   0  0  0  0  0  0  0  0  0  0  0  0
   -5.3050   -0.4610   16.1410 N   0  0  0  0  0  0  0  0  0  0  0  0
  2  1  1  0
  3  2  2  0
  5  2  1  0
  4  3  1  0
  7  4  2  0
  6  5  2  0
  7  6  1  0
  8  7  1  0
  9  8  2  0
 10  8  2  0
 11  8  1  0
 12 11  1  0
 13 12  2  0
 14 12  1  0
 15 14  1  0
 16 15  2  0
 18 15  1  0
 17 16  1  0
 20 17  2  0
 19 18  2  0
 20 19  1  0
 21 20  1  0
 22 21  2  0
 23 21  2  0
 24 21  1  0
A    1
C20
A    2
C19
A    3
C18
A    4
C17
A    5
C21
A    6
C22
A    7
C16
A    8
S13
A    9
O14
A   10
O15
A   11
N12
A   12
C10
A   13
O11
A   14
N9
A   15
C8
A   16
C7
A   17
C6
A   18
C23
A   19
N24
A   20
C5
A   21
S1
A   22
O2
A   23
O3
A   24
N4
M  END
>  <Id>  (120) 
4KV0_MB7_A_304

>  <ChainId>  (120) 
A

>  <AsymId>  (120) 
E

>  <SeqNum>  (120) 
304

>  <Name>  (120) 
5-({[(4-methylphenyl)sulfonyl]carbamoyl}amino)pyridine-2-sulfonamide

>  <SystematicName>  (120) 
1-(4-methylphenyl)sulfonyl-3-(6-sulfamoylpyridin-3-yl)urea

>  <Synonyms>  (120) 


>  <Type>  (120) 
NON-POLYMER

>  <Formula>  (120) 
C13 H14 N4 O5 S2

>  <ObservedFormula>  (120) 
C13 S2 N4 O5

>  <MolecularWeight>  (120) 
370.404

>  <ModifiedDate>  (120) 
2014-06-20

>  <Parent>  (120) 


>  <OneLetterCode>  (120) 


>  <SubcomponentList>  (120) 


>  <AmbiguousFlag>  (120) 
N

>  <InsertionCode>  (120) 


>  <InstanceId>  (120) 
4KV0_MB7_A_304

>  <ChemCompId>  (120) 
MB7

>  <PdbId>  (120) 
4KV0

>  <ResidueNumber>  (120) 
304

>  <InChI>  (120) 
InChI=1S/C13H14N4O5S2/c1-9-2-5-11(6-3-9)24(21,22)17-13(18)16-10-4-7-12(15-8-10)23(14,19)20/h2-8H,1H3,(H2,14,19,20)(H2,16,17,18)

>  <InChIKey>  (120) 
PBRJWJGMKVRIRK-UHFFFAOYSA-N

>  <SMILES>  (120) 
Cc1ccc(cc1)S(=O)(=O)NC(=O)Nc2ccc(nc2)S(=O)(=O)N

>  <MissingHeavyAtoms>  (120) 
0

>  <Model>  (120) 
1

>  <AltIds>  (120) 


>  <pKI>  (120) 
7.68

>  <ChemblID>  (120) 
CHEMBL3099282

>  <standardized_canonical_smiles>  (120) 
Cc1ccc(S(=O)(=O)NC(=O)Nc2ccc(S(N)(=O)=O)nc2)cc1

$$$$
4R5A_3J4_A_303
     RDKit          3D

 24 25  0  0  0  0  0  0  0  0999 V2000
    3.6920    3.7830   80.3310 C   0  0  0  0  0  0  0  0  0  0  0  0
    2.8710    4.3290   81.4880 C   0  0  0  0  0  0  0  0  0  0  0  0
    3.6230    5.1350   82.4920 C   0  0  0  0  0  0  0  0  0  0  0  0
   -1.6290    2.4760   86.0200 O   0  0  0  0  0  0  0  0  0  0  0  0
   -1.8890    1.4100   87.1140 S   0  0  0  0  0  0  0  0  0  0  0  0
   -3.2940    1.3800   87.2560 O   0  0  0  0  0  0  0  0  0  0  0  0
   -1.1510    1.6920   88.2380 O   0  0  0  0  0  0  0  0  0  0  0  0
   -1.2330    0.0890   86.6830 N   0  0  0  0  0  0  0  0  0  0  0  0
    1.6340    0.8350   79.6060 O   0  0  0  0  0  0  0  0  0  0  0  0
    2.2930    1.7100   80.4660 C   0  0  0  0  0  0  0  0  0  0  0  0
    3.4900    2.4220   79.9520 C   0  0  0  0  0  0  0  0  0  0  0  0
    3.8330    2.1900   78.5770 O   0  0  0  0  0  0  0  0  0  0  0  0
    5.1080    4.0120   80.4740 O   0  0  0  0  0  0  0  0  0  0  0  0
    3.0790    5.3460   83.7720 O   0  0  0  0  0  0  0  0  0  0  0  0
    1.7130    3.6320   81.9430 O   0  0  0  0  0  0  0  0  0  0  0  0
    1.4730    2.3040   81.6150 C   0  0  0  0  0  0  0  0  0  0  0  0
   -0.3370    2.1700   81.6460 S   0  0  0  0  0  0  0  0  0  0  0  0
   -0.5650    0.8610   81.3610 O   0  0  0  0  0  0  0  0  0  0  0  0
   -0.9260    3.1670   80.8460 O   0  0  0  0  0  0  0  0  0  0  0  0
   -0.6320    2.4820   82.9760 N   0  0  0  0  0  0  0  0  0  0  0  0
   -0.2270    1.8140   83.9120 C   0  0  0  0  0  0  0  0  0  0  0  0
   -0.7560    3.8420   83.4670 C   0  0  0  0  0  0  0  0  0  0  0  0
   -0.2450    3.8410   84.8910 C   0  0  0  0  0  0  0  0  0  0  0  0
   -0.3680    2.6610   85.2820 C   0  0  0  0  0  0  0  0  0  0  0  0
  2  1  1  0
 11  1  1  0
 13  1  1  0
  3  2  1  0
 15  2  1  0
 14  3  1  0
  5  4  1  0
 24  4  1  0
  6  5  2  0
  7  5  2  0
  8  5  1  0
 10  9  1  0
 11 10  1  0
 16 10  1  0
 12 11  1  0
 16 15  1  0
 17 16  1  0
 18 17  2  0
 19 17  2  0
 20 17  1  0
 21 20  1  0
 22 20  1  0
 24 21  1  0
 23 22  1  0
 24 23  1  0
A    1
C4
A    2
C5
A    3
C6
A    4
OAO
A    5
SAW
A    6
OAB
A    7
OAC
A    8
NAA
A    9
O2
A   10
C2
A   11
C3
A   12
O3
A   13
O4
A   14
O6
A   15
O5
A   16
C1
A   17
SAX
A   18
OAD
A   19
OAE
A   20
NAV
A   21
CAM
A   22
CAL
A   23
CAK
A   24
CAP
M  END
>  <Id>  (121) 
4R5A_3J4_A_303

>  <ChainId>  (121) 
A

>  <AsymId>  (121) 
D

>  <SeqNum>  (121) 
303

>  <Name>  (121) 
(6S)-2,6-anhydro-6-{[(3R)-3-(sulfamoyloxy)pyrrolidin-1-yl]sulfonyl}-D-glucitol

>  <SystematicName>  (121) 
[(3R)-1-[(2S,3S,4S,5S)-6-(hydroxymethyl)-3,4,5-tris(oxidanyl)oxan-2-yl]sulfonylpyrrolidin-3-yl] sulfamate

>  <Synonyms>  (121) 


>  <Type>  (121) 
NON-POLYMER

>  <Formula>  (121) 
C10 H20 N2 O10 S2

>  <ObservedFormula>  (121) 
C10 S2 N2 O10

>  <MolecularWeight>  (121) 
392.403

>  <ModifiedDate>  (121) 
2014-10-10

>  <Parent>  (121) 


>  <OneLetterCode>  (121) 


>  <SubcomponentList>  (121) 


>  <AmbiguousFlag>  (121) 
N

>  <InsertionCode>  (121) 


>  <InstanceId>  (121) 
4R5A_3J4_A_303

>  <ChemCompId>  (121) 
3J4

>  <PdbId>  (121) 
4R5A

>  <ResidueNumber>  (121) 
303

>  <InChI>  (121) 
InChI=1S/C10H20N2O10S2/c11-24(19,20)22-5-1-2-12(3-5)23(17,18)10-9(16)8(15)7(14)6(4-13)21-10/h5-10,13-16H,1-4H2,(H2,11,19,20)/t5-,6?,7-,8+,9+,10+/m1/s1

>  <InChIKey>  (121) 
TWZVGIAZMOMKML-NGXNFIGVSA-N

>  <SMILES>  (121) 
C1CN(C[C@@H]1OS(=O)(=O)N)S(=O)(=O)[C@H]2[C@H]([C@H]([C@@H](C(O2)CO)O)O)O

>  <MissingHeavyAtoms>  (121) 
0

>  <Model>  (121) 
1

>  <AltIds>  (121) 


>  <pKI>  (121) 
6.73

>  <ChemblID>  (121) 
CHEMBL3342257

>  <standardized_canonical_smiles>  (121) 
NS(=O)(=O)O[C@@H]1CCN(S(=O)(=O)[C@@H]2O[C@H](CO)[C@@H](O)[C@H](O)[C@H]2O)C1

$$$$
4R5B_3J4_A_303
     RDKit          3D

 24 25  0  0  0  0  0  0  0  0999 V2000
    0.5970    4.9310   79.4600 C   0  0  0  0  0  0  0  0  0  0  0  0
    1.1910    4.1560   80.6380 C   0  0  0  0  0  0  0  0  0  0  0  0
    1.7750    2.8240   80.3690 C   0  0  0  0  0  0  0  0  0  0  0  0
   -1.7750    1.8660   86.2140 O   0  0  0  0  0  0  0  0  0  0  0  0
   -2.6310    0.8540   86.9230 S   0  0  0  0  0  0  0  0  0  0  0  0
   -4.0360    1.0350   86.7800 O   0  0  0  0  0  0  0  0  0  0  0  0
   -2.2720    0.9640   88.2530 O   0  0  0  0  0  0  0  0  0  0  0  0
   -2.0970   -0.5310   86.3830 N   0  0  0  0  0  0  0  0  0  0  0  0
   -2.7410    6.3600   80.6300 O   0  0  0  0  0  0  0  0  0  0  0  0
   -1.6260    5.3680   80.6410 C   0  0  0  0  0  0  0  0  0  0  0  0
   -0.7640    5.4400   79.4360 C   0  0  0  0  0  0  0  0  0  0  0  0
   -0.8380    6.7680   78.8820 O   0  0  0  0  0  0  0  0  0  0  0  0
    0.7680    4.1520   78.2460 O   0  0  0  0  0  0  0  0  0  0  0  0
    1.8530    1.9300   81.4580 O   0  0  0  0  0  0  0  0  0  0  0  0
    0.4460    4.2650   81.8810 O   0  0  0  0  0  0  0  0  0  0  0  0
   -0.9320    4.7350   81.9060 C   0  0  0  0  0  0  0  0  0  0  0  0
   -1.0530    5.3930   83.5870 S   0  0  0  0  0  0  0  0  0  0  0  0
   -2.2900    6.0820   83.6210 O   0  0  0  0  0  0  0  0  0  0  0  0
    0.1110    6.0650   84.0010 O   0  0  0  0  0  0  0  0  0  0  0  0
   -1.1460    4.3000   84.4440 N   0  0  0  0  0  0  0  0  0  0  0  0
   -2.1370    3.5420   84.4390 C   0  0  0  0  0  0  0  0  0  0  0  0
    0.0180    3.4220   84.5460 C   0  0  0  0  0  0  0  0  0  0  0  0
   -0.5120    2.0080   84.3520 C   0  0  0  0  0  0  0  0  0  0  0  0
   -1.6660    2.0360   84.7490 C   0  0  0  0  0  0  0  0  0  0  0  0
  2  1  1  0
 11  1  1  0
 13  1  1  0
  3  2  1  0
 15  2  1  0
 14  3  1  0
  5  4  1  0
 24  4  1  0
  6  5  2  0
  7  5  2  0
  8  5  1  0
 10  9  1  0
 11 10  1  0
 16 10  1  0
 12 11  1  0
 16 15  1  0
 17 16  1  0
 18 17  2  0
 19 17  2  0
 20 17  1  0
 21 20  1  0
 22 20  1  0
 24 21  1  0
 23 22  1  0
 24 23  1  0
A    1
C4
A    2
C5
A    3
C6
A    4
OAO
A    5
SAW
A    6
OAB
A    7
OAC
A    8
NAA
A    9
O2
A   10
C2
A   11
C3
A   12
O3
A   13
O4
A   14
O6
A   15
O5
A   16
C1
A   17
SAX
A   18
OAD
A   19
OAE
A   20
NAV
A   21
CAM
A   22
CAL
A   23
CAK
A   24
CAP
M  END
>  <Id>  (122) 
4R5B_3J4_A_303

>  <ChainId>  (122) 
A

>  <AsymId>  (122) 
D

>  <SeqNum>  (122) 
303

>  <Name>  (122) 
(6S)-2,6-anhydro-6-{[(3R)-3-(sulfamoyloxy)pyrrolidin-1-yl]sulfonyl}-D-glucitol

>  <SystematicName>  (122) 
[(3R)-1-[(2S,3S,4S,5S)-6-(hydroxymethyl)-3,4,5-tris(oxidanyl)oxan-2-yl]sulfonylpyrrolidin-3-yl] sulfamate

>  <Synonyms>  (122) 


>  <Type>  (122) 
NON-POLYMER

>  <Formula>  (122) 
C10 H20 N2 O10 S2

>  <ObservedFormula>  (122) 
C10 S2 N2 O10

>  <MolecularWeight>  (122) 
392.403

>  <ModifiedDate>  (122) 
2014-10-10

>  <Parent>  (122) 


>  <OneLetterCode>  (122) 


>  <SubcomponentList>  (122) 


>  <AmbiguousFlag>  (122) 
N

>  <InsertionCode>  (122) 


>  <InstanceId>  (122) 
4R5B_3J4_A_303

>  <ChemCompId>  (122) 
3J4

>  <PdbId>  (122) 
4R5B

>  <ResidueNumber>  (122) 
303

>  <InChI>  (122) 
InChI=1S/C10H20N2O10S2/c11-24(19,20)22-5-1-2-12(3-5)23(17,18)10-9(16)8(15)7(14)6(4-13)21-10/h5-10,13-16H,1-4H2,(H2,11,19,20)/t5-,6?,7-,8+,9+,10+/m1/s1

>  <InChIKey>  (122) 
TWZVGIAZMOMKML-NGXNFIGVSA-N

>  <SMILES>  (122) 
C1CN(C[C@@H]1OS(=O)(=O)N)S(=O)(=O)[C@H]2[C@H]([C@H]([C@@H](C(O2)CO)O)O)O

>  <MissingHeavyAtoms>  (122) 
0

>  <Model>  (122) 
1

>  <AltIds>  (122) 


>  <pKI>  (122) 
6.73

>  <ChemblID>  (122) 
CHEMBL3342257

>  <standardized_canonical_smiles>  (122) 
NS(=O)(=O)O[C@@H]1CCN(S(=O)(=O)[C@@H]2O[C@H](CO)[C@@H](O)[C@H](O)[C@H]2O)C1

$$$$
4KUW_MB2_A_304
     RDKit          3D

 24 25  0  0  0  0  0  0  0  0999 V2000
   -1.3760   12.3180   14.7120 F   0  0  0  0  0  0  0  0  0  0  0  0
   -1.4780   11.2060   13.9650 C   0  0  0  0  0  0  0  0  0  0  0  0
   -0.8620   10.0320   14.3880 C   0  0  0  0  0  0  0  0  0  0  0  0
   -0.9640    8.8800   13.6180 C   0  0  0  0  0  0  0  0  0  0  0  0
   -2.1970   11.2320   12.7740 C   0  0  0  0  0  0  0  0  0  0  0  0
   -2.3000   10.0790   11.9980 C   0  0  0  0  0  0  0  0  0  0  0  0
   -1.6840    8.9000   12.4220 C   0  0  0  0  0  0  0  0  0  0  0  0
   -1.7850    7.5640   11.5530 S   0  0  0  0  0  0  0  0  0  0  0  0
   -0.6030    7.4410   10.7530 O   0  0  0  0  0  0  0  0  0  0  0  0
   -2.9460    7.5710   10.7000 O   0  0  0  0  0  0  0  0  0  0  0  0
   -1.8340    6.3280   12.5750 N   0  0  0  0  0  0  0  0  0  0  0  0
   -2.9580    5.8720   13.1540 C   0  0  0  0  0  0  0  0  0  0  0  0
   -4.0610    6.3360   12.9250 O   0  0  0  0  0  0  0  0  0  0  0  0
   -2.7570    4.8510   13.9830 N   0  0  0  0  0  0  0  0  0  0  0  0
   -3.6790    4.0490   14.5840 C   0  0  0  0  0  0  0  0  0  0  0  0
   -5.0810    4.1640   14.6050 C   0  0  0  0  0  0  0  0  0  0  0  0
   -5.8350    3.1930   15.2900 C   0  0  0  0  0  0  0  0  0  0  0  0
   -3.1000    2.9780   15.2350 C   0  0  0  0  0  0  0  0  0  0  0  0
   -3.8300    2.0740   15.8720 N   0  0  0  0  0  0  0  0  0  0  0  0
   -5.1690    2.1330   15.9270 C   0  0  0  0  0  0  0  0  0  0  0  0
   -5.8670    0.9360   16.7470 S   0  0  0  0  0  0  0  0  0  0  0  0
   -5.4680    0.9970   18.1320 O   0  0  0  0  0  0  0  0  0  0  0  0
   -7.2870    0.9970   16.6110 O   0  0  0  0  0  0  0  0  0  0  0  0
   -5.2930   -0.4340   16.1550 N   0  0  0  0  0  0  0  0  0  0  0  0
  2  1  1  0
  3  2  2  0
  5  2  1  0
  4  3  1  0
  7  4  2  0
  6  5  2  0
  7  6  1  0
  8  7  1  0
  9  8  2  0
 10  8  2  0
 11  8  1  0
 12 11  1  0
 13 12  2  0
 14 12  1  0
 15 14  1  0
 16 15  2  0
 18 15  1  0
 17 16  1  0
 20 17  2  0
 19 18  2  0
 20 19  1  0
 21 20  1  0
 22 21  2  0
 23 21  2  0
 24 21  1  0
A    1
F20
A    2
C19
A    3
C18
A    4
C17
A    5
C21
A    6
C22
A    7
C16
A    8
S13
A    9
O14
A   10
O15
A   11
N12
A   12
C10
A   13
O11
A   14
N9
A   15
C8
A   16
C7
A   17
C6
A   18
C23
A   19
N24
A   20
C5
A   21
S1
A   22
O2
A   23
O3
A   24
N4
M  END
>  <Id>  (123) 
4KUW_MB2_A_304

>  <ChainId>  (123) 
A

>  <AsymId>  (123) 
E

>  <SeqNum>  (123) 
304

>  <Name>  (123) 
5-({[(4-fluorophenyl)sulfonyl]carbamoyl}amino)pyridine-2-sulfonamide

>  <SystematicName>  (123) 
1-(4-fluorophenyl)sulfonyl-3-(6-sulfamoylpyridin-3-yl)urea

>  <Synonyms>  (123) 


>  <Type>  (123) 
NON-POLYMER

>  <Formula>  (123) 
C12 H11 F N4 O5 S2

>  <ObservedFormula>  (123) 
C12 S2 F N4 O5

>  <MolecularWeight>  (123) 
374.368

>  <ModifiedDate>  (123) 
2014-06-20

>  <Parent>  (123) 


>  <OneLetterCode>  (123) 


>  <SubcomponentList>  (123) 


>  <AmbiguousFlag>  (123) 
N

>  <InsertionCode>  (123) 


>  <InstanceId>  (123) 
4KUW_MB2_A_304

>  <ChemCompId>  (123) 
MB2

>  <PdbId>  (123) 
4KUW

>  <ResidueNumber>  (123) 
304

>  <InChI>  (123) 
InChI=1S/C12H11FN4O5S2/c13-8-1-4-10(5-2-8)24(21,22)17-12(18)16-9-3-6-11(15-7-9)23(14,19)20/h1-7H,(H2,14,19,20)(H2,16,17,18)

>  <InChIKey>  (123) 
IQSPZQMMEJIGTG-UHFFFAOYSA-N

>  <SMILES>  (123) 
c1cc(ccc1F)S(=O)(=O)NC(=O)Nc2ccc(nc2)S(=O)(=O)N

>  <MissingHeavyAtoms>  (123) 
0

>  <Model>  (123) 
1

>  <AltIds>  (123) 


>  <pKI>  (123) 
7.72

>  <ChemblID>  (123) 
CHEMBL3354129

>  <standardized_canonical_smiles>  (123) 
NS(=O)(=O)c1ccc(NC(=O)NS(=O)(=O)c2ccc(F)cc2)cn1

$$$$
4KUV_MB6_A_302
     RDKit          3D

 24 25  0  0  0  0  0  0  0  0999 V2000
   -0.9310   12.6130   15.1310 Cl  0  0  0  0  0  0  0  0  0  0  0  0
   -1.1760   11.1680   14.1070 C   0  0  0  0  0  0  0  0  0  0  0  0
   -0.5620    9.9710   14.4550 C   0  0  0  0  0  0  0  0  0  0  0  0
   -0.7470    8.8520   13.6560 C   0  0  0  0  0  0  0  0  0  0  0  0
   -1.9660   11.2620   12.9690 C   0  0  0  0  0  0  0  0  0  0  0  0
   -2.1500   10.1430   12.1660 C   0  0  0  0  0  0  0  0  0  0  0  0
   -1.5370    8.9400   12.5110 C   0  0  0  0  0  0  0  0  0  0  0  0
   -1.7220    7.6420   11.6040 S   0  0  0  0  0  0  0  0  0  0  0  0
   -0.5590    7.4480   10.7980 O   0  0  0  0  0  0  0  0  0  0  0  0
   -2.9010    7.7170   10.7880 O   0  0  0  0  0  0  0  0  0  0  0  0
   -1.7900    6.3990   12.6140 N   0  0  0  0  0  0  0  0  0  0  0  0
   -2.8980    5.9650   13.2110 C   0  0  0  0  0  0  0  0  0  0  0  0
   -3.9980    6.4300   13.0240 O   0  0  0  0  0  0  0  0  0  0  0  0
   -2.6660    4.9520   14.0320 N   0  0  0  0  0  0  0  0  0  0  0  0
   -3.5900    4.1260   14.6210 C   0  0  0  0  0  0  0  0  0  0  0  0
   -4.9990    4.1910   14.6210 C   0  0  0  0  0  0  0  0  0  0  0  0
   -5.7450    3.2420   15.2880 N   0  0  0  0  0  0  0  0  0  0  0  0
   -2.9800    3.1220   15.2980 C   0  0  0  0  0  0  0  0  0  0  0  0
   -3.7360    2.1900   15.9870 C   0  0  0  0  0  0  0  0  0  0  0  0
   -5.1250    2.2030   15.9830 C   0  0  0  0  0  0  0  0  0  0  0  0
   -5.8820    0.9710   16.7940 S   0  0  0  0  0  0  0  0  0  0  0  0
   -5.4010   -0.3470   16.2140 O   0  0  0  0  0  0  0  0  0  0  0  0
   -7.3060    1.1680   16.5820 O   0  0  0  0  0  0  0  0  0  0  0  0
   -5.4670    1.0720   18.2370 N   0  0  0  0  0  0  0  0  0  0  0  0
  2  1  1  0
  3  2  2  0
  5  2  1  0
  4  3  1  0
  7  4  2  0
  6  5  2  0
  7  6  1  0
  8  7  1  0
  9  8  2  0
 10  8  2  0
 11  8  1  0
 12 11  1  0
 13 12  2  0
 14 12  1  0
 15 14  1  0
 16 15  2  0
 18 15  1  0
 17 16  1  0
 20 17  2  0
 19 18  2  0
 20 19  1  0
 21 20  1  0
 22 21  2  0
 23 21  2  0
 24 21  1  0
A    1
CL1
A    2
C19
A    3
C18
A    4
C17
A    5
C21
A    6
C22
A    7
C16
A    8
S13
A    9
O14
A   10
O15
A   11
N12
A   12
C10
A   13
O11
A   14
N9
A   15
C8
A   16
C7
A   17
N6
A   18
C23
A   19
C24
A   20
C5
A   21
S1
A   22
O2
A   23
O3
A   24
N4
M  END
>  <Id>  (124) 
4KUV_MB6_A_302

>  <ChainId>  (124) 
A

>  <AsymId>  (124) 
C

>  <SeqNum>  (124) 
302

>  <Name>  (124) 
5-({[(4-chlorophenyl)sulfonyl]carbamoyl}amino)pyridine-2-sulfonamide

>  <SystematicName>  (124) 
1-(4-chlorophenyl)sulfonyl-3-(6-sulfamoylpyridin-3-yl)urea

>  <Synonyms>  (124) 


>  <Type>  (124) 
NON-POLYMER

>  <Formula>  (124) 
C12 H11 Cl N4 O5 S2

>  <ObservedFormula>  (124) 
C12 S2 Cl N4 O5

>  <MolecularWeight>  (124) 
390.823

>  <ModifiedDate>  (124) 
2014-06-20

>  <Parent>  (124) 


>  <OneLetterCode>  (124) 


>  <SubcomponentList>  (124) 


>  <AmbiguousFlag>  (124) 
N

>  <InsertionCode>  (124) 


>  <InstanceId>  (124) 
4KUV_MB6_A_302

>  <ChemCompId>  (124) 
MB6

>  <PdbId>  (124) 
4KUV

>  <ResidueNumber>  (124) 
302

>  <InChI>  (124) 
InChI=1S/C12H11ClN4O5S2/c13-8-1-4-10(5-2-8)24(21,22)17-12(18)16-9-3-6-11(15-7-9)23(14,19)20/h1-7H,(H2,14,19,20)(H2,16,17,18)

>  <InChIKey>  (124) 
OBPYYKUIAZWAFC-UHFFFAOYSA-N

>  <SMILES>  (124) 
c1cc(ccc1S(=O)(=O)NC(=O)Nc2ccc(nc2)S(=O)(=O)N)Cl

>  <MissingHeavyAtoms>  (124) 
0

>  <Model>  (124) 
1

>  <AltIds>  (124) 


>  <pKI>  (124) 
7.46

>  <ChemblID>  (124) 
CHEMBL3354128

>  <standardized_canonical_smiles>  (124) 
NS(=O)(=O)c1ccc(NC(=O)NS(=O)(=O)c2ccc(Cl)cc2)cn1

$$$$
4KUY_MB4_A_304
     RDKit          3D

 24 25  0  0  0  0  0  0  0  0999 V2000
   -2.4890   11.6830   12.9940 C   0  0  0  0  0  0  0  0  0  0  0  0
   -1.7210   10.8240   13.7700 C   0  0  0  0  0  0  0  0  0  0  0  0
   -1.4480    9.5240   13.3410 C   0  0  0  0  0  0  0  0  0  0  0  0
   -2.9920   11.2520   11.7740 C   0  0  0  0  0  0  0  0  0  0  0  0
   -2.7200    9.9590   11.3390 C   0  0  0  0  0  0  0  0  0  0  0  0
   -1.9560    9.0770   12.1150 C   0  0  0  0  0  0  0  0  0  0  0  0
   -1.6790    7.6070   11.5150 S   0  0  0  0  0  0  0  0  0  0  0  0
   -2.6430    7.3280   10.5010 O   0  0  0  0  0  0  0  0  0  0  0  0
   -0.3640    7.6250   10.9530 O   0  0  0  0  0  0  0  0  0  0  0  0
   -1.6850    6.4510   12.6330 N   0  0  0  0  0  0  0  0  0  0  0  0
   -2.7930    5.9360   13.1890 C   0  0  0  0  0  0  0  0  0  0  0  0
   -3.8990    6.3670   12.9310 O   0  0  0  0  0  0  0  0  0  0  0  0
   -2.5830    4.8930   14.0140 N   0  0  0  0  0  0  0  0  0  0  0  0
   -3.5090    4.0540   14.5800 C   0  0  0  0  0  0  0  0  0  0  0  0
   -4.9150    4.1210   14.5130 C   0  0  0  0  0  0  0  0  0  0  0  0
   -5.6820    3.1400   15.1800 C   0  0  0  0  0  0  0  0  0  0  0  0
   -2.9580    3.0160   15.3190 C   0  0  0  0  0  0  0  0  0  0  0  0
   -3.7040    2.1030   15.9500 N   0  0  0  0  0  0  0  0  0  0  0  0
   -5.0520    2.1100   15.9060 C   0  0  0  0  0  0  0  0  0  0  0  0
   -5.8270    0.9170   16.6990 S   0  0  0  0  0  0  0  0  0  0  0  0
   -7.2420    1.0570   16.5160 O   0  0  0  0  0  0  0  0  0  0  0  0
   -5.4260   -0.3720   16.1390 O   0  0  0  0  0  0  0  0  0  0  0  0
   -5.4910    0.9660   18.2270 N   0  0  0  0  0  0  0  0  0  0  0  0
   -0.6090    8.6610   14.2500 C   0  0  0  0  0  0  0  0  0  0  0  0
  2  1  2  0
  4  1  1  0
  3  2  1  0
  6  3  2  0
 24  3  1  0
  5  4  2  0
  6  5  1  0
  7  6  1  0
  8  7  2  0
  9  7  2  0
 10  7  1  0
 11 10  1  0
 12 11  2  0
 13 11  1  0
 14 13  1  0
 15 14  2  0
 17 14  1  0
 16 15  1  0
 19 16  2  0
 18 17  2  0
 19 18  1  0
 20 19  1  0
 21 20  2  0
 22 20  2  0
 23 20  1  0
A    1
C19
A    2
C18
A    3
C17
A    4
C21
A    5
C22
A    6
C16
A    7
S13
A    8
O14
A    9
O15
A   10
N12
A   11
C10
A   12
O11
A   13
N9
A   14
C8
A   15
C7
A   16
C6
A   17
C23
A   18
N24
A   19
C5
A   20
S1
A   21
O2
A   22
O3
A   23
N4
A   24
C20
M  END
>  <Id>  (125) 
4KUY_MB4_A_304

>  <ChainId>  (125) 
A

>  <AsymId>  (125) 
E

>  <SeqNum>  (125) 
304

>  <Name>  (125) 
5-({[(2-methylphenyl)sulfonyl]carbamoyl}amino)pyridine-2-sulfonamide

>  <SystematicName>  (125) 
1-(2-methylphenyl)sulfonyl-3-(6-sulfamoylpyridin-3-yl)urea

>  <Synonyms>  (125) 


>  <Type>  (125) 
NON-POLYMER

>  <Formula>  (125) 
C13 H14 N4 O5 S2

>  <ObservedFormula>  (125) 
C13 S2 N4 O5

>  <MolecularWeight>  (125) 
370.404

>  <ModifiedDate>  (125) 
2014-06-20

>  <Parent>  (125) 


>  <OneLetterCode>  (125) 


>  <SubcomponentList>  (125) 


>  <AmbiguousFlag>  (125) 
N

>  <InsertionCode>  (125) 


>  <InstanceId>  (125) 
4KUY_MB4_A_304

>  <ChemCompId>  (125) 
MB4

>  <PdbId>  (125) 
4KUY

>  <ResidueNumber>  (125) 
304

>  <InChI>  (125) 
InChI=1S/C13H14N4O5S2/c1-9-4-2-3-5-11(9)24(21,22)17-13(18)16-10-6-7-12(15-8-10)23(14,19)20/h2-8H,1H3,(H2,14,19,20)(H2,16,17,18)

>  <InChIKey>  (125) 
FSPCZTCUVKLQSU-UHFFFAOYSA-N

>  <SMILES>  (125) 
Cc1ccccc1S(=O)(=O)NC(=O)Nc2ccc(nc2)S(=O)(=O)N

>  <MissingHeavyAtoms>  (125) 
0

>  <Model>  (125) 
1

>  <AltIds>  (125) 


>  <pKI>  (125) 
7.39

>  <ChemblID>  (125) 
CHEMBL3354127

>  <standardized_canonical_smiles>  (125) 
Cc1ccccc1S(=O)(=O)NC(=O)Nc1ccc(S(N)(=O)=O)nc1

$$$$
4RFC_3O1_A_302
     RDKit          3D

 23 23  0  0  0  0  0  0  0  0999 V2000
   23.7300   11.0580   12.8220 C   0  0  0  0  0  0  0  0  0  0  0  0
   24.1630   11.9070   13.9720 C   0  0  0  0  0  0  0  0  0  0  0  0
   24.7410   13.1820   13.4480 C   0  0  0  0  0  0  0  0  0  0  0  0
   25.2110   11.1790   14.7500 C   0  0  0  0  0  0  0  0  0  0  0  0
   23.0930   12.1940   14.7980 O   0  0  0  0  0  0  0  0  0  0  0  0
   21.9520   11.8400   14.5160 C   0  0  0  0  0  0  0  0  0  0  0  0
   20.9940   12.8060   14.3160 O   0  0  0  0  0  0  0  0  0  0  0  0
   21.5240   10.5180   14.8740 N   0  0  0  0  0  0  0  0  0  0  0  0
   20.2680   10.2110   14.2570 C   0  0  0  0  0  0  0  0  0  0  0  0
   19.5650    8.9520   14.6480 C   0  0  0  0  0  0  0  0  0  0  0  0
   19.3240    7.8870   13.6340 C   0  0  0  0  0  0  0  0  0  0  0  0
   18.9180    6.5240   14.0970 C   0  0  0  0  0  0  0  0  0  0  0  0
   17.6160    6.1280   13.9040 O   0  0  0  0  0  0  0  0  0  0  0  0
   17.1030    5.0580   14.5990 C   0  0  0  0  0  0  0  0  0  0  0  0
   15.7810    5.0630   15.0230 C   0  0  0  0  0  0  0  0  0  0  0  0
   15.2600    3.9900   15.7240 C   0  0  0  0  0  0  0  0  0  0  0  0
   16.0560    2.8900   16.0150 C   0  0  0  0  0  0  0  0  0  0  0  0
   15.3960    1.5190   16.9180 S   0  0  0  0  0  0  0  0  0  0  0  0
   15.9260    1.6000   18.2860 O   0  0  0  0  0  0  0  0  0  0  0  0
   13.9270    1.6060   16.9510 O   0  0  0  0  0  0  0  0  0  0  0  0
   15.9060    0.1240   16.2480 N   0  0  0  0  0  0  0  0  0  0  0  0
   17.3780    2.8830   15.5940 C   0  0  0  0  0  0  0  0  0  0  0  0
   17.8960    3.9560   14.8900 C   0  0  0  0  0  0  0  0  0  0  0  0
  2  1  1  0
  3  2  1  0
  4  2  1  0
  5  2  1  0
  6  5  1  0
  7  6  2  0
  8  6  1  0
  9  8  1  0
 10  9  1  0
 11 10  1  0
 12 11  1  0
 13 12  1  0
 14 13  1  0
 15 14  2  0
 23 14  1  0
 16 15  1  0
 17 16  2  0
 18 17  1  0
 22 17  1  0
 19 18  2  0
 20 18  2  0
 21 18  1  0
 23 22  2  0
A    1
CAA
A    2
CAV
A    3
CAB
A    4
CAC
A    5
OAR
A    6
CAS
A    7
OAE
A    8
NAP
A    9
CAN
A   10
CAL
A   11
CAM
A   12
CAO
A   13
OAQ
A   14
CAT
A   15
CAH
A   16
CAJ
A   17
CAU
A   18
SAW
A   19
OAF
A   20
OAG
A   21
NAD
A   22
CAK
A   23
CAI
M  END
>  <Id>  (126) 
4RFC_3O1_A_302

>  <ChainId>  (126) 
A

>  <AsymId>  (126) 
C

>  <SeqNum>  (126) 
302

>  <Name>  (126) 
tert-butyl 4-(4-sulfamoylphenoxy)butylcarbamate

>  <SystematicName>  (126) 
tert-butyl N-[4-(4-sulfamoylphenoxy)butyl]carbamate

>  <Synonyms>  (126) 
tert-butyl 6-(4-sulfamoylphenoxy)hexylcarbamate

>  <Type>  (126) 
NON-POLYMER

>  <Formula>  (126) 
C15 H24 N2 O5 S

>  <ObservedFormula>  (126) 
C15 S N2 O5

>  <MolecularWeight>  (126) 
344.426

>  <ModifiedDate>  (126) 
2015-04-10

>  <Parent>  (126) 


>  <OneLetterCode>  (126) 


>  <SubcomponentList>  (126) 


>  <AmbiguousFlag>  (126) 
N

>  <InsertionCode>  (126) 


>  <InstanceId>  (126) 
4RFC_3O1_A_302

>  <ChemCompId>  (126) 
3O1

>  <PdbId>  (126) 
4RFC

>  <ResidueNumber>  (126) 
302

>  <InChI>  (126) 
InChI=1S/C15H24N2O5S/c1-15(2,3)22-14(18)17-10-4-5-11-21-12-6-8-13(9-7-12)23(16,19)20/h6-9H,4-5,10-11H2,1-3H3,(H,17,18)(H2,16,19,20)

>  <InChIKey>  (126) 
ULDQAZFJSXNRJO-UHFFFAOYSA-N

>  <SMILES>  (126) 
CC(C)(C)OC(=O)NCCCCOc1ccc(cc1)S(=O)(=O)N

>  <MissingHeavyAtoms>  (126) 
0

>  <Model>  (126) 
1

>  <AltIds>  (126) 


>  <pKI>  (126) 
8.24

>  <ChemblID>  (126) 
CHEMBL3359166

>  <standardized_canonical_smiles>  (126) 
CC(C)(C)OC(=O)NCCCCOc1ccc(S(N)(=O)=O)cc1

$$$$
4RFD_3O5_A_303
     RDKit          3D

 16 16  0  0  0  0  0  0  0  0999 V2000
   15.6190    0.1140   80.6530 C   0  0  0  0  0  0  0  0  0  0  0  0
   14.7650    0.6950   81.5860 C   0  0  0  0  0  0  0  0  0  0  0  0
   15.2050    0.9650   82.8800 C   0  0  0  0  0  0  0  0  0  0  0  0
   14.1320    1.6950   84.0820 S   0  0  0  0  0  0  0  0  0  0  0  0
   13.4820    2.8970   83.5210 O   0  0  0  0  0  0  0  0  0  0  0  0
   13.1680    0.6300   84.4220 O   0  0  0  0  0  0  0  0  0  0  0  0
   14.9880    2.0920   85.4190 N   0  0  0  0  0  0  0  0  0  0  0  0
   16.5000    0.6260   83.2240 C   0  0  0  0  0  0  0  0  0  0  0  0
   17.3490    0.0600   82.2910 C   0  0  0  0  0  0  0  0  0  0  0  0
   16.9220   -0.2060   81.0060 C   0  0  0  0  0  0  0  0  0  0  0  0
   17.7840   -0.7760   80.0950 O   0  0  0  0  0  0  0  0  0  0  0  0
   17.2970   -1.6580   79.1530 C   0  0  0  0  0  0  0  0  0  0  0  0
   18.2470   -2.4950   78.3530 C   0  0  0  0  0  0  0  0  0  0  0  0
   18.8060   -3.7370   78.9660 C   0  0  0  0  0  0  0  0  0  0  0  0
   20.2600   -4.0330   78.7690 C   0  0  0  0  0  0  0  0  0  0  0  0
   20.8980   -5.1860   79.3370 N   0  0  0  0  0  0  0  0  0  0  0  0
  2  1  2  0
 10  1  1  0
  3  2  1  0
  4  3  1  0
  8  3  2  0
  5  4  2  0
  6  4  2  0
  7  4  1  0
  9  8  1  0
 10  9  2  0
 11 10  1  0
 12 11  1  0
 13 12  1  0
 14 13  1  0
 15 14  1  0
 16 15  1  0
A    1
CAE
A    2
CAG
A    3
CAO
A    4
SAP
A    5
OAC
A    6
OAD
A    7
NAA
A    8
CAH
A    9
CAF
A   10
CAN
A   11
OAM
A   12
CAL
A   13
CAK
A   14
CAJ
A   15
CAI
A   16
NAB
M  END
>  <Id>  (127) 
4RFD_3O5_A_303

>  <ChainId>  (127) 
A

>  <AsymId>  (127) 
D

>  <SeqNum>  (127) 
303

>  <Name>  (127) 
4-(4-sulfamoyl-phenoxy)-butylammonium

>  <SystematicName>  (127) 
4-(4-azanylbutoxy)benzenesulfonamide

>  <Synonyms>  (127) 
4-(4-aminobutoxy)benzenesulfonamide

>  <Type>  (127) 
NON-POLYMER

>  <Formula>  (127) 
C10 H16 N2 O3 S

>  <ObservedFormula>  (127) 
C10 S N2 O3

>  <MolecularWeight>  (127) 
244.311

>  <ModifiedDate>  (127) 
2015-04-10

>  <Parent>  (127) 


>  <OneLetterCode>  (127) 


>  <SubcomponentList>  (127) 


>  <AmbiguousFlag>  (127) 
N

>  <InsertionCode>  (127) 


>  <InstanceId>  (127) 
4RFD_3O5_A_303

>  <ChemCompId>  (127) 
3O5

>  <PdbId>  (127) 
4RFD

>  <ResidueNumber>  (127) 
303

>  <InChI>  (127) 
InChI=1S/C10H16N2O3S/c11-7-1-2-8-15-9-3-5-10(6-4-9)16(12,13)14/h3-6H,1-2,7-8,11H2,(H2,12,13,14)

>  <InChIKey>  (127) 
FRXJBOBSXLTMJW-UHFFFAOYSA-N

>  <SMILES>  (127) 
c1cc(ccc1OCCCCN)S(=O)(=O)N

>  <MissingHeavyAtoms>  (127) 
0

>  <Model>  (127) 
1

>  <AltIds>  (127) 


>  <pKI>  (127) 
8.05

>  <ChemblID>  (127) 
CHEMBL3359171

>  <standardized_canonical_smiles>  (127) 
NCCCCOc1ccc(S(N)(=O)=O)cc1

$$$$
4DZ7_D02_A_303
     RDKit          3D

 23 24  0  0  0  0  0  0  0  0999 V2000
   -0.6380    9.5140   10.3990 C   0  0  0  0  0  0  0  0  0  0  0  0
   -5.3560   -0.3500   16.1360 N   0  0  0  0  0  0  0  0  0  0  0  0
   -1.9070    7.0550   10.1650 O   0  0  0  0  0  0  0  0  0  0  0  0
   -5.4410    1.2310   18.1390 O   0  0  0  0  0  0  0  0  0  0  0  0
   -7.3680    1.2570   16.6370 O   0  0  0  0  0  0  0  0  0  0  0  0
   -1.7090    3.6600   15.1450 F   0  0  0  0  0  0  0  0  0  0  0  0
   -5.9980    5.4350   14.2360 F   0  0  0  0  0  0  0  0  0  0  0  0
   -3.0140    1.6040   16.3540 F   0  0  0  0  0  0  0  0  0  0  0  0
   -7.1590    3.4110   15.4620 F   0  0  0  0  0  0  0  0  0  0  0  0
   -2.8310    5.9680   12.7160 C   0  0  0  0  0  0  0  0  0  0  0  0
   -2.1640    7.5180   13.9270 N   0  0  0  0  0  0  0  0  0  0  0  0
   -2.7210    6.6780   14.6620 N   0  0  0  0  0  0  0  0  0  0  0  0
   -1.1710    8.8000   11.5370 O   0  0  0  0  0  0  0  0  0  0  0  0
   -1.7740    7.5970   11.2650 C   0  0  0  0  0  0  0  0  0  0  0  0
   -2.2070    7.1270   12.6680 C   0  0  0  0  0  0  0  0  0  0  0  0
   -3.0470    3.6380   15.1690 C   0  0  0  0  0  0  0  0  0  0  0  0
   -5.1810    4.4950   14.7570 C   0  0  0  0  0  0  0  0  0  0  0  0
   -3.7450    2.6070   15.8030 C   0  0  0  0  0  0  0  0  0  0  0  0
   -5.8200    3.4350   15.3880 C   0  0  0  0  0  0  0  0  0  0  0  0
   -3.7990    4.6780   14.5910 C   0  0  0  0  0  0  0  0  0  0  0  0
   -5.1110    2.3840   15.9810 C   0  0  0  0  0  0  0  0  0  0  0  0
   -3.1320    5.7060   13.9880 N   0  0  0  0  0  0  0  0  0  0  0  0
   -5.8790    1.0130   16.8130 S   0  0  0  0  0  0  0  0  0  0  0  0
 13  1  1  0
 23  2  1  0
 14  3  2  0
 23  4  2  0
 23  5  2  0
 16  6  1  0
 17  7  1  0
 18  8  1  0
 19  9  1  0
 15 10  2  0
 22 10  1  0
 12 11  2  0
 15 11  1  0
 22 12  1  0
 14 13  1  0
 15 14  1  0
 18 16  2  0
 20 16  1  0
 19 17  1  0
 20 17  2  0
 21 18  1  0
 21 19  2  0
 22 20  1  0
 23 21  1  0
A    1
CAA
A    2
NAB
A    3
OAC
A    4
OAD
A    5
OAE
A    6
FAF
A    7
FAG
A    8
FAH
A    9
FAI
A   10
CAJ
A   11
NAK
A   12
NAL
A   13
OAM
A   14
CAN
A   15
CAO
A   16
CAP
A   17
CAQ
A   18
CAR
A   19
CAS
A   20
CAT
A   21
CAU
A   22
NAV
A   23
SAW
M  END
>  <Id>  (128) 
4DZ7_D02_A_303

>  <ChainId>  (128) 
A

>  <AsymId>  (128) 
D

>  <SeqNum>  (128) 
303

>  <Name>  (128) 
methyl 1-(2,3,5,6-tetrafluoro-4-sulfamoylphenyl)-1H-1,2,3-triazole-4-carboxylate

>  <SystematicName>  (128) 
methyl 1-(2,3,5,6-tetrafluoro-4-sulfamoyl-phenyl)-1,2,3-triazole-4-carboxylate

>  <Synonyms>  (128) 


>  <Type>  (128) 
NON-POLYMER

>  <Formula>  (128) 
C10 H6 F4 N4 O4 S

>  <ObservedFormula>  (128) 
C10 S F4 N4 O4

>  <MolecularWeight>  (128) 
354.238

>  <ModifiedDate>  (128) 
2011-10-14

>  <Parent>  (128) 


>  <OneLetterCode>  (128) 


>  <SubcomponentList>  (128) 


>  <AmbiguousFlag>  (128) 
N

>  <InsertionCode>  (128) 


>  <InstanceId>  (128) 
4DZ7_D02_A_303

>  <ChemCompId>  (128) 
D02

>  <PdbId>  (128) 
4DZ7

>  <ResidueNumber>  (128) 
303

>  <InChI>  (128) 
InChI=1S/C10H6F4N4O4S/c1-22-10(19)3-2-18(17-16-3)8-4(11)6(13)9(23(15,20)21)7(14)5(8)12/h2H,1H3,(H2,15,20,21)

>  <InChIKey>  (128) 
SZIXXXYRUPCZBK-UHFFFAOYSA-N

>  <SMILES>  (128) 
COC(=O)c1cn(nn1)c2c(c(c(c(c2F)F)S(=O)(=O)N)F)F

>  <MissingHeavyAtoms>  (128) 
0

>  <Model>  (128) 
1

>  <AltIds>  (128) 


>  <pKI>  (128) 
6.35

>  <ChemblID>  (128) 
CHEMBL3326416

>  <standardized_canonical_smiles>  (128) 
COC(=O)c1cn(-c2c(F)c(F)c(S(N)(=O)=O)c(F)c2F)nn1

$$$$
4Q87_4FH_A_303
     RDKit          3D

 12 12  0  0  0  0  0  0  0  0999 V2000
   14.7830    0.3710   16.9820 S   0  0  0  0  0  0  0  0  0  0  0  0
   15.4480    1.3790   15.7560 C   0  0  0  0  0  0  0  0  0  0  0  0
   15.2030    2.8180   15.7800 C   0  0  0  0  0  0  0  0  0  0  0  0
   15.7230    3.6030   14.8210 C   0  0  0  0  0  0  0  0  0  0  0  0
   15.4660    5.1320   14.8420 C   0  0  0  0  0  0  0  0  0  0  0  0
   14.9470    5.4590   15.9500 F   0  0  0  0  0  0  0  0  0  0  0  0
   16.6370    5.7880   14.6820 F   0  0  0  0  0  0  0  0  0  0  0  0
   14.6710    5.4430   13.8930 F   0  0  0  0  0  0  0  0  0  0  0  0
   16.5040    3.0350   13.7940 C   0  0  0  0  0  0  0  0  0  0  0  0
   16.7370    1.6540   13.7730 C   0  0  0  0  0  0  0  0  0  0  0  0
   16.1980    0.8380   14.7690 N   0  0  0  0  0  0  0  0  0  0  0  0
   16.4220   -0.4790   14.7460 O   0  0  0  0  0  0  0  0  0  0  0  0
  2  1  2  0
  3  2  1  0
 11  2  1  0
  4  3  2  0
  5  4  1  0
  9  4  1  0
  6  5  1  0
  7  5  1  0
  8  5  1  0
 10  9  2  0
 11 10  1  0
 12 11  1  0
A    1
S1
A    2
C1
A    3
C2
A    4
C3
A    5
C6
A    6
F1
A    7
F2
A    8
F3
A    9
C4
A   10
C5
A   11
N1
A   12
O2
M  END
>  <Id>  (129) 
4Q87_4FH_A_303

>  <ChainId>  (129) 
A

>  <AsymId>  (129) 
D

>  <SeqNum>  (129) 
303

>  <Name>  (129) 
1-hydroxy-4-(trifluoromethyl)pyridine-2(1H)-thione

>  <SystematicName>  (129) 
1-oxidanyl-4-(trifluoromethyl)pyridine-2-thione

>  <Synonyms>  (129) 


>  <Type>  (129) 
NON-POLYMER

>  <Formula>  (129) 
C6 H4 F3 N O S

>  <ObservedFormula>  (129) 
S C6 F3 N O

>  <MolecularWeight>  (129) 
195.162

>  <ModifiedDate>  (129) 
2015-03-06

>  <Parent>  (129) 


>  <OneLetterCode>  (129) 


>  <SubcomponentList>  (129) 


>  <AmbiguousFlag>  (129) 
N

>  <InsertionCode>  (129) 


>  <InstanceId>  (129) 
4Q87_4FH_A_303

>  <ChemCompId>  (129) 
4FH

>  <PdbId>  (129) 
4Q87

>  <ResidueNumber>  (129) 
303

>  <InChI>  (129) 
InChI=1S/C6H4F3NOS/c7-6(8,9)4-1-2-10(11)5(12)3-4/h1-3,11H

>  <InChIKey>  (129) 
LFJNCYOAHJYDNR-UHFFFAOYSA-N

>  <SMILES>  (129) 
C1=CN(C(=S)C=C1C(F)(F)F)O

>  <MissingHeavyAtoms>  (129) 
0

>  <Model>  (129) 
1

>  <AltIds>  (129) 


>  <pKI>  (129) 
4.85

>  <ChemblID>  (129) 
CHEMBL3326435

>  <standardized_canonical_smiles>  (129) 
On1ccc(C(F)(F)F)cc1=S

$$$$
4Q83_3FH_A_302
     RDKit          3D

 12 12  0  0  0  0  0  0  0  0999 V2000
   14.8020    0.2060   16.9560 S   0  0  0  0  0  0  0  0  0  0  0  0
   15.6310    1.2120   15.7950 C   0  0  0  0  0  0  0  0  0  0  0  0
   15.5700    2.7050   15.9150 C   0  0  0  0  0  0  0  0  0  0  0  0
   14.6590    3.3750   17.0150 C   0  0  0  0  0  0  0  0  0  0  0  0
   14.8010    4.7020   16.9600 F   0  0  0  0  0  0  0  0  0  0  0  0
   13.4410    3.0700   16.8020 F   0  0  0  0  0  0  0  0  0  0  0  0
   15.0390    2.9180   18.2800 F   0  0  0  0  0  0  0  0  0  0  0  0
   16.2140    3.4490   15.0660 C   0  0  0  0  0  0  0  0  0  0  0  0
   17.0090    2.8490   14.0610 C   0  0  0  0  0  0  0  0  0  0  0  0
   17.0390    1.4290   13.9270 C   0  0  0  0  0  0  0  0  0  0  0  0
   16.3890    0.6450   14.8320 N   0  0  0  0  0  0  0  0  0  0  0  0
   16.4330   -0.6810   14.7140 O   0  0  0  0  0  0  0  0  0  0  0  0
  2  1  2  0
  3  2  1  0
 11  2  1  0
  4  3  1  0
  8  3  2  0
  5  4  1  0
  6  4  1  0
  7  4  1  0
  9  8  1  0
 10  9  2  0
 11 10  1  0
 12 11  1  0
A    1
S1
A    2
C1
A    3
C2
A    4
C6
A    5
F1
A    6
F2
A    7
F3
A    8
C3
A    9
C4
A   10
C5
A   11
N1
A   12
O1
M  END
>  <Id>  (130) 
4Q83_3FH_A_302

>  <ChainId>  (130) 
A

>  <AsymId>  (130) 
C

>  <SeqNum>  (130) 
302

>  <Name>  (130) 
1-hydroxy-3-(trifluoromethyl)pyridine-2(1H)-thione

>  <SystematicName>  (130) 
1-oxidanyl-3-(trifluoromethyl)pyridine-2-thione

>  <Synonyms>  (130) 


>  <Type>  (130) 
NON-POLYMER

>  <Formula>  (130) 
C6 H4 F3 N O S

>  <ObservedFormula>  (130) 
S C6 F3 N O

>  <MolecularWeight>  (130) 
195.162

>  <ModifiedDate>  (130) 
2015-03-06

>  <Parent>  (130) 


>  <OneLetterCode>  (130) 


>  <SubcomponentList>  (130) 


>  <AmbiguousFlag>  (130) 
N

>  <InsertionCode>  (130) 


>  <InstanceId>  (130) 
4Q83_3FH_A_302

>  <ChemCompId>  (130) 
3FH

>  <PdbId>  (130) 
4Q83

>  <ResidueNumber>  (130) 
302

>  <InChI>  (130) 
InChI=1S/C6H4F3NOS/c7-6(8,9)4-2-1-3-10(11)5(4)12/h1-3,11H

>  <InChIKey>  (130) 
IILCCFILLZAKJZ-UHFFFAOYSA-N

>  <SMILES>  (130) 
C1=CN(C(=S)C(=C1)C(F)(F)F)O

>  <MissingHeavyAtoms>  (130) 
0

>  <Model>  (130) 
1

>  <AltIds>  (130) 


>  <pKI>  (130) 
4.19

>  <ChemblID>  (130) 
CHEMBL3326434

>  <standardized_canonical_smiles>  (130) 
On1cccc(C(F)(F)F)c1=S

$$$$
4Q7S_2YU_A_302
     RDKit          3D

  9  9  0  0  0  0  0  0  0  0999 V2000
   14.9010    0.2290   17.0040 S   0  0  0  0  0  0  0  0  0  0  0  0
   15.4220    1.2990   15.7810 C   0  0  0  0  0  0  0  0  0  0  0  0
   15.0830    2.6970   15.8550 C   0  0  0  0  0  0  0  0  0  0  0  0
   15.5100    3.5510   14.8880 C   0  0  0  0  0  0  0  0  0  0  0  0
   15.1320    4.9710   14.9420 C   0  0  0  0  0  0  0  0  0  0  0  0
   16.3080    3.0660   13.8090 C   0  0  0  0  0  0  0  0  0  0  0  0
   16.6510    1.7410   13.7530 C   0  0  0  0  0  0  0  0  0  0  0  0
   16.1970    0.8410   14.7640 N   0  0  0  0  0  0  0  0  0  0  0  0
   16.5680   -0.4340   14.7350 O   0  0  0  0  0  0  0  0  0  0  0  0
  2  1  2  0
  3  2  1  0
  8  2  1  0
  4  3  2  0
  5  4  1  0
  6  4  1  0
  7  6  2  0
  8  7  1  0
  9  8  1  0
A    1
S1
A    2
C1
A    3
C2
A    4
C3
A    5
C6
A    6
C4
A    7
C5
A    8
N1
A    9
O1
M  END
>  <Id>  (131) 
4Q7S_2YU_A_302

>  <ChainId>  (131) 
A

>  <AsymId>  (131) 
C

>  <SeqNum>  (131) 
302

>  <Name>  (131) 
1-hydroxy-4-methylpyridine-2(1H)-thione

>  <SystematicName>  (131) 
4-methyl-1-oxidanyl-pyridine-2-thione

>  <Synonyms>  (131) 


>  <Type>  (131) 
NON-POLYMER

>  <Formula>  (131) 
C6 H7 N O S

>  <ObservedFormula>  (131) 
S C6 N O

>  <MolecularWeight>  (131) 
141.191

>  <ModifiedDate>  (131) 
2015-03-06

>  <Parent>  (131) 


>  <OneLetterCode>  (131) 


>  <SubcomponentList>  (131) 


>  <AmbiguousFlag>  (131) 
N

>  <InsertionCode>  (131) 


>  <InstanceId>  (131) 
4Q7S_2YU_A_302

>  <ChemCompId>  (131) 
2YU

>  <PdbId>  (131) 
4Q7S

>  <ResidueNumber>  (131) 
302

>  <InChI>  (131) 
InChI=1S/C6H7NOS/c1-5-2-3-7(8)6(9)4-5/h2-4,8H,1H3

>  <InChIKey>  (131) 
RCWJCTXRXJZSQK-UHFFFAOYSA-N

>  <SMILES>  (131) 
CC1=CC(=S)N(C=C1)O

>  <MissingHeavyAtoms>  (131) 
0

>  <Model>  (131) 
1

>  <AltIds>  (131) 


>  <pKI>  (131) 
4.42

>  <ChemblID>  (131) 
CHEMBL3326430

>  <standardized_canonical_smiles>  (131) 
Cc1ccn(O)c(=S)c1

$$$$
3MHM_DMS_A_263
     RDKit          3D

  4  3  0  0  0  0  0  0  0  0999 V2000
    1.4170  -11.7230   15.0600 S   0  0  0  0  0  0  0  0  0  0  0  0
    2.6540  -10.6060   14.3090 O   0  0  0  0  0  0  0  0  0  0  0  0
    1.9200  -13.3770   14.4910 C   0  0  0  0  0  0  0  0  0  0  0  0
    1.7800  -11.6410   16.8270 C   0  0  0  0  0  0  0  0  0  0  0  0
  2  1  2  0
  3  1  1  0
  4  1  1  0
A    1
S
A    2
O
A    3
C1
A    4
C2
M  END
>  <Id>  (132) 
3MHM_DMS_A_263

>  <ChainId>  (132) 
A

>  <AsymId>  (132) 
C

>  <SeqNum>  (132) 
263

>  <Name>  (132) 
DIMETHYL SULFOXIDE

>  <SystematicName>  (132) 
methylsulfinylmethane

>  <Synonyms>  (132) 


>  <Type>  (132) 
NON-POLYMER

>  <Formula>  (132) 
C2 H6 O S

>  <ObservedFormula>  (132) 
S C2 O

>  <MolecularWeight>  (132) 
78.133

>  <ModifiedDate>  (132) 
2011-06-04

>  <Parent>  (132) 


>  <OneLetterCode>  (132) 


>  <SubcomponentList>  (132) 


>  <AmbiguousFlag>  (132) 
N

>  <InsertionCode>  (132) 


>  <InstanceId>  (132) 
3MHM_DMS_A_263

>  <ChemCompId>  (132) 
DMS

>  <PdbId>  (132) 
3MHM

>  <ResidueNumber>  (132) 
263

>  <InChI>  (132) 
InChI=1S/C2H6OS/c1-4(2)3/h1-2H3

>  <InChIKey>  (132) 
IAZDPXIOMUYVGZ-UHFFFAOYSA-N

>  <SMILES>  (132) 
CS(=O)C

>  <MissingHeavyAtoms>  (132) 
0

>  <Model>  (132) 
1

>  <AltIds>  (132) 


>  <pKI>  (132) 
4.32

>  <ChemblID>  (132) 
CHEMBL3326429

>  <standardized_canonical_smiles>  (132) 
Cc1cccn(O)c1=S

$$$$
3MHO_UNL_A_267
     RDKit          3D

  9  0  0  0  0  0  0  0  0  0999 V2000
   -5.3400    2.0740   12.0630 O   0  0  0  0  0  0  0  0  0  0  0  0
   -5.6250    1.4860   10.8760 C   0  0  0  0  0  0  0  0  0  0  0  0
   -4.9000    0.6170   10.0570 C   0  0  0  0  0  0  0  0  0  0  0  0
   -3.8990   -0.4520   10.3110 C   0  0  0  0  0  0  0  0  0  0  0  0
   -3.3330   -1.1190   11.3910 N   0  0  0  0  0  0  0  0  0  0  0  0
   -4.1450   -1.0220   12.4230 C   0  0  0  0  0  0  0  0  0  0  0  0
   -4.1000   -0.0730   13.3530 O   0  0  0  0  0  0  0  0  0  0  0  0
   -2.7210   -2.3180   11.5080 C   0  0  0  0  0  0  0  0  0  0  0  0
   -2.8240   -3.6220   11.4460 O   0  0  0  0  0  0  0  0  0  0  0  0
A    1
O8
A    2
C7
A    3
C6
A    4
C5
A    5
N
A    6
C2
A    7
O1
A    8
C3
A    9
O4
M  END
>  <Id>  (133) 
3MHO_UNL_A_267

>  <ChainId>  (133) 
A

>  <AsymId>  (133) 
G

>  <SeqNum>  (133) 
267

>  <Name>  (133) 
Unknown ligand

>  <SystematicName>  (133) 
null

>  <Synonyms>  (133) 


>  <Type>  (133) 
NON-POLYMER

>  <Formula>  (133) 


>  <ObservedFormula>  (133) 
C5 N O3

>  <MolecularWeight>  (133) 
0.0

>  <ModifiedDate>  (133) 
2008-12-05

>  <Parent>  (133) 


>  <OneLetterCode>  (133) 


>  <SubcomponentList>  (133) 


>  <AmbiguousFlag>  (133) 
Y

>  <InsertionCode>  (133) 


>  <InstanceId>  (133) 
3MHO_UNL_A_267

>  <ChemCompId>  (133) 
UNL

>  <PdbId>  (133) 
3MHO

>  <ResidueNumber>  (133) 
267

>  <InChI>  (133) 
null

>  <InChIKey>  (133) 
null

>  <SMILES>  (133) 


>  <MissingHeavyAtoms>  (133) 
8

>  <Model>  (133) 
1

>  <AltIds>  (133) 


>  <pKI>  (133) 
4.32

>  <ChemblID>  (133) 
CHEMBL3326429

>  <standardized_canonical_smiles>  (133) 
Cc1cccn(O)c1=S

$$$$
3MHI_J90_A_264
     RDKit          3D

 22 23  0  0  0  0  0  0  0  0999 V2000
   15.0460   -7.2620    7.5130 N   0  0  0  0  0  0  0  0  0  0  0  0
   15.7850   -6.4950    8.2950 C   0  0  0  0  0  0  0  0  0  0  0  0
   15.2780   -5.4310    8.8840 N   0  0  0  0  0  0  0  0  0  0  0  0
   14.0030   -5.0840    8.6900 C   0  0  0  0  0  0  0  0  0  0  0  0
   13.1500   -5.8530    7.8590 C   0  0  0  0  0  0  0  0  0  0  0  0
   13.7670   -7.0020    7.2690 C   0  0  0  0  0  0  0  0  0  0  0  0
   13.5510   -3.9320    9.3360 N   0  0  0  0  0  0  0  0  0  0  0  0
   13.4110   -2.4600   11.1020 C   0  0  0  0  0  0  0  0  0  0  0  0
   12.8990   -3.2670   12.1460 C   0  0  0  0  0  0  0  0  0  0  0  0
   12.0040   -2.7540   13.0620 C   0  0  0  0  0  0  0  0  0  0  0  0
   11.6450   -1.4090   12.9010 C   0  0  0  0  0  0  0  0  0  0  0  0
   12.1320   -0.5760   11.8540 C   0  0  0  0  0  0  0  0  0  0  0  0
   13.0220   -1.1170   10.9110 C   0  0  0  0  0  0  0  0  0  0  0  0
   10.4950   -0.7620   14.1270 S   0  0  0  0  0  0  0  0  0  0  0  0
    9.9890    0.5640   13.5810 O   0  0  0  0  0  0  0  0  0  0  0  0
    9.5520   -1.9500   14.2780 O   0  0  0  0  0  0  0  0  0  0  0  0
   11.3290   -0.5450   15.7030 N   0  0  0  0  0  0  0  0  0  0  0  0
   11.7020   -5.4730    7.6510 N   0  0  0  0  0  0  0  0  0  0  0  0
   11.5060   -4.2780    7.6490 O   0  0  0  0  0  0  0  0  0  0  0  0
   11.1580   -6.5080    7.5640 O   0  0  0  0  0  0  0  0  0  0  0  0
   13.1430   -7.9460    6.4160 O   0  0  0  0  0  0  0  0  0  0  0  0
   14.3470   -3.1310   10.1520 C   0  0  0  0  0  0  0  0  0  0  0  0
  2  1  1  0
  6  1  1  0
  3  2  2  0
  4  3  1  0
  5  4  2  0
  7  4  1  0
  6  5  1  0
 18  5  1  0
 21  6  2  0
 22  7  1  0
  9  8  2  0
 13  8  1  0
 22  8  1  0
 10  9  1  0
 11 10  2  0
 12 11  1  0
 14 11  1  0
 13 12  2  0
 15 14  2  0
 16 14  2  0
 17 14  1  0
 19 18  1  0
 20 18  2  0
M  CHG  2  18   1  19  -1
A    1
N1
A    2
C2
A    3
N3
A    4
C4
A    5
C5
A    6
C6
A    7
N7
A    8
C8
A    9
C9
A   10
C10
A   11
C11
A   12
C12
A   13
C13
A   14
S14
A   15
O15
A   16
O16
A   17
N17
A   18
N18
A   19
O19
A   20
O20
A   21
O21
A   22
C22
M  END
>  <Id>  (134) 
3MHI_J90_A_264

>  <ChainId>  (134) 
A

>  <AsymId>  (134) 
D

>  <SeqNum>  (134) 
264

>  <Name>  (134) 
4-{[(5-nitro-6-oxo-1,6-dihydropyrimidin-4-yl)amino]methyl}benzenesulfonamide

>  <SystematicName>  (134) 
4-[[(5-nitro-6-oxo-1H-pyrimidin-4-yl)amino]methyl]benzenesulfonamide

>  <Synonyms>  (134) 
4-{[(5-nitro-6-oxo-1,6-dihydro-4-pyrimidinyl)amino]methyl}benzenesulfonamide

>  <Type>  (134) 
NON-POLYMER

>  <Formula>  (134) 
C11 H11 N5 O5 S

>  <ObservedFormula>  (134) 
C11 S N5 O5

>  <MolecularWeight>  (134) 
325.301

>  <ModifiedDate>  (134) 
2011-06-04

>  <Parent>  (134) 


>  <OneLetterCode>  (134) 


>  <SubcomponentList>  (134) 


>  <AmbiguousFlag>  (134) 
N

>  <InsertionCode>  (134) 


>  <InstanceId>  (134) 
3MHI_J90_A_264

>  <ChemCompId>  (134) 
J90

>  <PdbId>  (134) 
3MHI

>  <ResidueNumber>  (134) 
264

>  <InChI>  (134) 
InChI=1S/C11H11N5O5S/c12-22(20,21)8-3-1-7(2-4-8)5-13-10-9(16(18)19)11(17)15-6-14-10/h1-4,6H,5H2,(H2,12,20,21)(H2,13,14,15,17)

>  <InChIKey>  (134) 
OFSBPMITNGFAFH-UHFFFAOYSA-N

>  <SMILES>  (134) 
c1cc(ccc1CNC2=C(C(=O)NC=N2)[N+](=O)[O-])S(=O)(=O)N

>  <MissingHeavyAtoms>  (134) 
0

>  <Model>  (134) 
1

>  <AltIds>  (134) 


>  <pKI>  (134) 
4.32

>  <ChemblID>  (134) 
CHEMBL3326429

>  <standardized_canonical_smiles>  (134) 
Cc1cccn(O)c1=S

$$$$
3MHI_DMS_A_266
     RDKit          3D

  4  3  0  0  0  0  0  0  0  0999 V2000
   -6.3620    7.2130   10.8230 S   0  0  0  0  0  0  0  0  0  0  0  0
   -4.7700    7.9970   11.2130 O   0  0  0  0  0  0  0  0  0  0  0  0
   -7.2640    6.8110   12.3300 C   0  0  0  0  0  0  0  0  0  0  0  0
   -7.0760    8.8230   10.3460 C   0  0  0  0  0  0  0  0  0  0  0  0
  2  1  2  0
  3  1  1  0
  4  1  1  0
A    1
S
A    2
O
A    3
C1
A    4
C2
M  END
>  <Id>  (135) 
3MHI_DMS_A_266

>  <ChainId>  (135) 
A

>  <AsymId>  (135) 
F

>  <SeqNum>  (135) 
266

>  <Name>  (135) 
DIMETHYL SULFOXIDE

>  <SystematicName>  (135) 
methylsulfinylmethane

>  <Synonyms>  (135) 


>  <Type>  (135) 
NON-POLYMER

>  <Formula>  (135) 
C2 H6 O S

>  <ObservedFormula>  (135) 
S C2 O

>  <MolecularWeight>  (135) 
78.133

>  <ModifiedDate>  (135) 
2011-06-04

>  <Parent>  (135) 


>  <OneLetterCode>  (135) 


>  <SubcomponentList>  (135) 


>  <AmbiguousFlag>  (135) 
N

>  <InsertionCode>  (135) 


>  <InstanceId>  (135) 
3MHI_DMS_A_266

>  <ChemCompId>  (135) 
DMS

>  <PdbId>  (135) 
3MHI

>  <ResidueNumber>  (135) 
266

>  <InChI>  (135) 
InChI=1S/C2H6OS/c1-4(2)3/h1-2H3

>  <InChIKey>  (135) 
IAZDPXIOMUYVGZ-UHFFFAOYSA-N

>  <SMILES>  (135) 
CS(=O)C

>  <MissingHeavyAtoms>  (135) 
0

>  <Model>  (135) 
1

>  <AltIds>  (135) 


>  <pKI>  (135) 
4.32

>  <ChemblID>  (135) 
CHEMBL3326429

>  <standardized_canonical_smiles>  (135) 
Cc1cccn(O)c1=S

$$$$
3MHL_DMS_A_264
     RDKit          3D

  4  3  0  0  0  0  0  0  0  0999 V2000
   -4.0600    0.6660   10.6760 S   0  0  0  0  0  0  0  0  0  0  0  0
   -4.0570   -0.4900   12.0460 O   0  0  0  0  0  0  0  0  0  0  0  0
   -4.6840    2.2570   11.2680 C   0  0  0  0  0  0  0  0  0  0  0  0
   -2.3190    1.0810   10.3420 C   0  0  0  0  0  0  0  0  0  0  0  0
  2  1  2  0
  3  1  1  0
  4  1  1  0
A    1
S
A    2
O
A    3
C1
A    4
C2
M  END
>  <Id>  (136) 
3MHL_DMS_A_264

>  <ChainId>  (136) 
A

>  <AsymId>  (136) 
D

>  <SeqNum>  (136) 
264

>  <Name>  (136) 
DIMETHYL SULFOXIDE

>  <SystematicName>  (136) 
methylsulfinylmethane

>  <Synonyms>  (136) 


>  <Type>  (136) 
NON-POLYMER

>  <Formula>  (136) 
C2 H6 O S

>  <ObservedFormula>  (136) 
S C2 O

>  <MolecularWeight>  (136) 
78.133

>  <ModifiedDate>  (136) 
2011-06-04

>  <Parent>  (136) 


>  <OneLetterCode>  (136) 


>  <SubcomponentList>  (136) 


>  <AmbiguousFlag>  (136) 
N

>  <InsertionCode>  (136) 


>  <InstanceId>  (136) 
3MHL_DMS_A_264

>  <ChemCompId>  (136) 
DMS

>  <PdbId>  (136) 
3MHL

>  <ResidueNumber>  (136) 
264

>  <InChI>  (136) 
InChI=1S/C2H6OS/c1-4(2)3/h1-2H3

>  <InChIKey>  (136) 
IAZDPXIOMUYVGZ-UHFFFAOYSA-N

>  <SMILES>  (136) 
CS(=O)C

>  <MissingHeavyAtoms>  (136) 
0

>  <Model>  (136) 
1

>  <AltIds>  (136) 


>  <pKI>  (136) 
4.32

>  <ChemblID>  (136) 
CHEMBL3326429

>  <standardized_canonical_smiles>  (136) 
Cc1cccn(O)c1=S

$$$$
4Q7P_3MH_A_302
     RDKit          3D

  9  9  0  0  0  0  0  0  0  0999 V2000
   14.9530    0.1600   16.9840 S   0  0  0  0  0  0  0  0  0  0  0  0
   15.4520    1.3640   15.8250 C   0  0  0  0  0  0  0  0  0  0  0  0
   15.0340    2.7110   15.9760 C   0  0  0  0  0  0  0  0  0  0  0  0
   14.2420    3.1260   17.1990 C   0  0  0  0  0  0  0  0  0  0  0  0
   15.3750    3.6280   15.0510 C   0  0  0  0  0  0  0  0  0  0  0  0
   16.1540    3.2590   13.9590 C   0  0  0  0  0  0  0  0  0  0  0  0
   16.5240    1.9430   13.7910 C   0  0  0  0  0  0  0  0  0  0  0  0
   16.2010    1.0040   14.7560 N   0  0  0  0  0  0  0  0  0  0  0  0
   16.5560   -0.2740   14.5890 O   0  0  0  0  0  0  0  0  0  0  0  0
  2  1  2  0
  3  2  1  0
  8  2  1  0
  4  3  1  0
  5  3  2  0
  6  5  1  0
  7  6  2  0
  8  7  1  0
  9  8  1  0
A    1
S1
A    2
C1
A    3
C2
A    4
C6
A    5
C3
A    6
C4
A    7
C5
A    8
N1
A    9
O1
M  END
>  <Id>  (137) 
4Q7P_3MH_A_302

>  <ChainId>  (137) 
A

>  <AsymId>  (137) 
C

>  <SeqNum>  (137) 
302

>  <Name>  (137) 
1-hydroxy-3-methylpyridine-2(1H)-thione

>  <SystematicName>  (137) 
3-methyl-1-oxidanyl-pyridine-2-thione

>  <Synonyms>  (137) 


>  <Type>  (137) 
NON-POLYMER

>  <Formula>  (137) 
C6 H7 N O S

>  <ObservedFormula>  (137) 
S C6 N O

>  <MolecularWeight>  (137) 
141.191

>  <ModifiedDate>  (137) 
2015-03-06

>  <Parent>  (137) 


>  <OneLetterCode>  (137) 


>  <SubcomponentList>  (137) 


>  <AmbiguousFlag>  (137) 
N

>  <InsertionCode>  (137) 


>  <InstanceId>  (137) 
4Q7P_3MH_A_302

>  <ChemCompId>  (137) 
3MH

>  <PdbId>  (137) 
4Q7P

>  <ResidueNumber>  (137) 
302

>  <InChI>  (137) 
InChI=1S/C6H7NOS/c1-5-3-2-4-7(8)6(5)9/h2-4,8H,1H3

>  <InChIKey>  (137) 
YFGDWYKLGMSVNE-UHFFFAOYSA-N

>  <SMILES>  (137) 
CC1=CC=CN(C1=S)O

>  <MissingHeavyAtoms>  (137) 
0

>  <Model>  (137) 
1

>  <AltIds>  (137) 


>  <pKI>  (137) 
4.32

>  <ChemblID>  (137) 
CHEMBL3326429

>  <standardized_canonical_smiles>  (137) 
Cc1cccn(O)c1=S

$$$$
3MHL_J71_A_265
     RDKit          3D

 23 24  0  0  0  0  0  0  0  0999 V2000
   -3.3010    9.8570   11.0590 N   0  0  0  0  0  0  0  0  0  0  0  0
   -2.4370    9.1480   11.8180 C   0  0  0  0  0  0  0  0  0  0  0  0
   -2.7590    7.9360   12.3130 N   0  0  0  0  0  0  0  0  0  0  0  0
   -3.9750    7.3920   12.0330 C   0  0  0  0  0  0  0  0  0  0  0  0
   -4.9080    8.1060   11.2010 C   0  0  0  0  0  0  0  0  0  0  0  0
   -4.5270    9.4110   10.6980 C   0  0  0  0  0  0  0  0  0  0  0  0
   -4.2880    6.1130   12.5700 N   0  0  0  0  0  0  0  0  0  0  0  0
   -4.0820    4.3290   14.2150 C   0  0  0  0  0  0  0  0  0  0  0  0
   -5.4450    4.3270   14.5960 C   0  0  0  0  0  0  0  0  0  0  0  0
   -5.8950    3.2150   15.3960 C   0  0  0  0  0  0  0  0  0  0  0  0
   -5.0130    2.1350   15.6740 C   0  0  0  0  0  0  0  0  0  0  0  0
   -3.6740    2.1640   15.3040 C   0  0  0  0  0  0  0  0  0  0  0  0
   -3.2290    3.2510   14.5370 C   0  0  0  0  0  0  0  0  0  0  0  0
   -5.6340    0.8510   16.6480 S   0  0  0  0  0  0  0  0  0  0  0  0
   -5.1200    0.9100   17.9660 O   0  0  0  0  0  0  0  0  0  0  0  0
   -7.0900    0.8590   16.4600 O   0  0  0  0  0  0  0  0  0  0  0  0
   -4.9200   -0.4920   15.9450 N   0  0  0  0  0  0  0  0  0  0  0  0
   -6.2190    7.3910   10.9460 N   0  0  0  0  0  0  0  0  0  0  0  0
   -6.2740    6.3990   10.3250 O   0  0  0  0  0  0  0  0  0  0  0  0
   -7.3770    7.8660   11.3830 O   0  0  0  0  0  0  0  0  0  0  0  0
   -5.2760   10.3850    9.8140 O   0  0  0  0  0  0  0  0  0  0  0  0
   -5.7040   11.6980   10.1900 C   0  0  0  0  0  0  0  0  0  0  0  0
   -3.3920    5.4040   13.3930 C   0  0  0  0  0  0  0  0  0  0  0  0
  2  1  2  0
  6  1  1  0
  3  2  1  0
  4  3  2  0
  5  4  1  0
  7  4  1  0
  6  5  2  0
 18  5  1  0
 21  6  1  0
 23  7  1  0
  9  8  2  0
 13  8  1  0
 23  8  1  0
 10  9  1  0
 11 10  2  0
 12 11  1  0
 14 11  1  0
 13 12  2  0
 15 14  2  0
 16 14  2  0
 17 14  1  0
 19 18  1  0
 20 18  2  0
 22 21  1  0
M  CHG  2  18   1  19  -1
A    1
N1
A    2
C2
A    3
N3
A    4
C4
A    5
C5
A    6
C6
A    7
N7
A    8
C8
A    9
C9
A   10
C10
A   11
C11
A   12
C12
A   13
C13
A   14
S14
A   15
O15
A   16
O16
A   17
N17
A   18
N18
A   19
O19
A   20
O20
A   21
O21
A   22
C22
A   23
C23
M  END
>  <Id>  (138) 
3MHL_J71_A_265

>  <ChainId>  (138) 
A

>  <AsymId>  (138) 
E

>  <SeqNum>  (138) 
265

>  <Name>  (138) 
4-{[(6-methoxy-5-nitropyrimidin-4-yl)amino]methyl}benzenesulfonamide

>  <SystematicName>  (138) 
4-[[(6-methoxy-5-nitro-pyrimidin-4-yl)amino]methyl]benzenesulfonamide

>  <Synonyms>  (138) 
4-{[N-(6-methoxy-5-nitropyrimidin-4-yl)amino]methyl}benzenesulfonamide

>  <Type>  (138) 
NON-POLYMER

>  <Formula>  (138) 
C12 H13 N5 O5 S

>  <ObservedFormula>  (138) 
C12 S N5 O5

>  <MolecularWeight>  (138) 
339.327

>  <ModifiedDate>  (138) 
2011-06-04

>  <Parent>  (138) 


>  <OneLetterCode>  (138) 


>  <SubcomponentList>  (138) 


>  <AmbiguousFlag>  (138) 
N

>  <InsertionCode>  (138) 


>  <InstanceId>  (138) 
3MHL_J71_A_265

>  <ChemCompId>  (138) 
J71

>  <PdbId>  (138) 
3MHL

>  <ResidueNumber>  (138) 
265

>  <InChI>  (138) 
InChI=1S/C12H13N5O5S/c1-22-12-10(17(18)19)11(15-7-16-12)14-6-8-2-4-9(5-3-8)23(13,20)21/h2-5,7H,6H2,1H3,(H2,13,20,21)(H,14,15,16)

>  <InChIKey>  (138) 
OZWJHSDFZMDTAH-UHFFFAOYSA-N

>  <SMILES>  (138) 
COc1c(c(ncn1)NCc2ccc(cc2)S(=O)(=O)N)[N+](=O)[O-]

>  <MissingHeavyAtoms>  (138) 
0

>  <Model>  (138) 
1

>  <AltIds>  (138) 


>  <pKI>  (138) 
4.32

>  <ChemblID>  (138) 
CHEMBL3326429

>  <standardized_canonical_smiles>  (138) 
Cc1cccn(O)c1=S

$$$$
3MHO_DMS_A_264
     RDKit          3D

  4  3  0  0  0  0  0  0  0  0999 V2000
   -5.6170    7.3600   11.3910 S   0  0  0  0  0  0  0  0  0  0  0  0
   -5.7080    6.3780    9.8890 O   0  0  0  0  0  0  0  0  0  0  0  0
   -6.2860    9.0100   11.0550 C   0  0  0  0  0  0  0  0  0  0  0  0
   -6.8510    6.7130   12.5450 C   0  0  0  0  0  0  0  0  0  0  0  0
  2  1  2  0
  3  1  1  0
  4  1  1  0
A    1
S
A    2
O
A    3
C1
A    4
C2
M  END
>  <Id>  (139) 
3MHO_DMS_A_264

>  <ChainId>  (139) 
A

>  <AsymId>  (139) 
D

>  <SeqNum>  (139) 
264

>  <Name>  (139) 
DIMETHYL SULFOXIDE

>  <SystematicName>  (139) 
methylsulfinylmethane

>  <Synonyms>  (139) 


>  <Type>  (139) 
NON-POLYMER

>  <Formula>  (139) 
C2 H6 O S

>  <ObservedFormula>  (139) 
S C2 O

>  <MolecularWeight>  (139) 
78.133

>  <ModifiedDate>  (139) 
2011-06-04

>  <Parent>  (139) 


>  <OneLetterCode>  (139) 


>  <SubcomponentList>  (139) 


>  <AmbiguousFlag>  (139) 
N

>  <InsertionCode>  (139) 


>  <InstanceId>  (139) 
3MHO_DMS_A_264

>  <ChemCompId>  (139) 
DMS

>  <PdbId>  (139) 
3MHO

>  <ResidueNumber>  (139) 
264

>  <InChI>  (139) 
InChI=1S/C2H6OS/c1-4(2)3/h1-2H3

>  <InChIKey>  (139) 
IAZDPXIOMUYVGZ-UHFFFAOYSA-N

>  <SMILES>  (139) 
CS(=O)C

>  <MissingHeavyAtoms>  (139) 
0

>  <Model>  (139) 
1

>  <AltIds>  (139) 


>  <pKI>  (139) 
4.32

>  <ChemblID>  (139) 
CHEMBL3326429

>  <standardized_canonical_smiles>  (139) 
Cc1cccn(O)c1=S

$$$$
3MHO_J43_A_265
     RDKit          3D

 22 23  0  0  0  0  0  0  0  0999 V2000
   -0.0490    5.6030   11.8170 N   0  0  0  0  0  0  0  0  0  0  0  0
   -0.8590    4.5540   11.7850 C   0  0  0  0  0  0  0  0  0  0  0  0
   -1.9580    4.5440   12.5220 N   0  0  0  0  0  0  0  0  0  0  0  0
   -2.2890    5.5420   13.3420 C   0  0  0  0  0  0  0  0  0  0  0  0
   -1.4870    6.6800   13.3820 C   0  0  0  0  0  0  0  0  0  0  0  0
   -0.3320    6.6510   12.5930 C   0  0  0  0  0  0  0  0  0  0  0  0
   -3.5400    5.3740   13.9960 N   0  0  0  0  0  0  0  0  0  0  0  0
   -4.0360    4.2740   14.6180 C   0  0  0  0  0  0  0  0  0  0  0  0
   -3.2940    3.1230   14.8740 C   0  0  0  0  0  0  0  0  0  0  0  0
   -3.8800    2.0660   15.5590 C   0  0  0  0  0  0  0  0  0  0  0  0
   -5.2120    2.1550   15.9760 C   0  0  0  0  0  0  0  0  0  0  0  0
   -5.9480    3.3130   15.7130 C   0  0  0  0  0  0  0  0  0  0  0  0
   -5.3540    4.3700   15.0350 C   0  0  0  0  0  0  0  0  0  0  0  0
   -5.9210    0.8520   16.8210 S   0  0  0  0  0  0  0  0  0  0  0  0
   -7.4080    0.9760   16.6690 O   0  0  0  0  0  0  0  0  0  0  0  0
   -5.4040    0.9830   18.2170 O   0  0  0  0  0  0  0  0  0  0  0  0
   -5.3630   -0.6140   16.1370 N   0  0  0  0  0  0  0  0  0  0  0  0
   -1.8110    7.8450   14.2460 C   0  0  0  0  0  0  0  0  0  0  0  0
   -2.6770    7.8410   15.1180 O   0  0  0  0  0  0  0  0  0  0  0  0
    0.7700    7.9760   12.5910 Cl  0  0  0  0  0  0  0  0  0  0  0  0
   -0.5160    3.1410   10.7630 S   0  0  0  0  0  0  0  0  0  0  0  0
   -1.4540    1.7120   11.3620 C   0  0  0  0  0  0  0  0  0  0  0  0
  2  1  2  0
  6  1  1  0
  3  2  1  0
 21  2  1  0
  4  3  2  0
  5  4  1  0
  7  4  1  0
  6  5  2  0
 18  5  1  0
 20  6  1  0
  8  7  1  0
  9  8  2  0
 13  8  1  0
 10  9  1  0
 11 10  2  0
 12 11  1  0
 14 11  1  0
 13 12  2  0
 15 14  2  0
 16 14  2  0
 17 14  1  0
 19 18  2  0
 22 21  1  0
A    1
N1
A    2
C2
A    3
N3
A    4
C4
A    5
C5
A    6
C6
A    7
N7
A    8
C8
A    9
C9
A   10
C10
A   11
C11
A   12
C12
A   13
C13
A   14
S14
A   15
O15
A   16
O16
A   17
N17
A   18
C18
A   19
O19
A   20
CL20
A   21
S21
A   22
C22
M  END
>  <Id>  (140) 
3MHO_J43_A_265

>  <ChainId>  (140) 
A

>  <AsymId>  (140) 
E

>  <SeqNum>  (140) 
265

>  <Name>  (140) 
4-{[6-chloro-5-formyl-2-(methylsulfanyl)pyrimidin-4-yl]amino}benzenesulfonamide

>  <SystematicName>  (140) 
4-[(6-chloro-5-methanoyl-2-methylsulfanyl-pyrimidin-4-yl)amino]benzenesulfonamide

>  <Synonyms>  (140) 
4-[N-(6-chloro-5-formyl-2-methylthiopyrimidin-4-yl)amino]benzenesulfonamide

>  <Type>  (140) 
NON-POLYMER

>  <Formula>  (140) 
C12 H11 Cl N4 O3 S2

>  <ObservedFormula>  (140) 
C12 S2 Cl N4 O3

>  <MolecularWeight>  (140) 
358.824

>  <ModifiedDate>  (140) 
2011-06-04

>  <Parent>  (140) 


>  <OneLetterCode>  (140) 


>  <SubcomponentList>  (140) 


>  <AmbiguousFlag>  (140) 
N

>  <InsertionCode>  (140) 


>  <InstanceId>  (140) 
3MHO_J43_A_265

>  <ChemCompId>  (140) 
J43

>  <PdbId>  (140) 
3MHO

>  <ResidueNumber>  (140) 
265

>  <InChI>  (140) 
InChI=1S/C12H11ClN4O3S2/c1-21-12-16-10(13)9(6-18)11(17-12)15-7-2-4-8(5-3-7)22(14,19)20/h2-6H,1H3,(H2,14,19,20)(H,15,16,17)

>  <InChIKey>  (140) 
KJYFMIWARJDIAU-UHFFFAOYSA-N

>  <SMILES>  (140) 
CSc1nc(c(c(n1)Cl)C=O)Nc2ccc(cc2)S(=O)(=O)N

>  <MissingHeavyAtoms>  (140) 
0

>  <Model>  (140) 
1

>  <AltIds>  (140) 


>  <pKI>  (140) 
4.32

>  <ChemblID>  (140) 
CHEMBL3326429

>  <standardized_canonical_smiles>  (140) 
Cc1cccn(O)c1=S

$$$$
3MHM_J75_A_264
     RDKit          3D

 29 31  0  0  0  0  0  0  0  0999 V2000
   -3.3430    9.9140   11.1210 N   0  0  0  0  0  0  0  0  0  0  0  0
   -2.4220    9.2540   11.8640 C   0  0  0  0  0  0  0  0  0  0  0  0
   -2.7350    8.0690   12.4870 N   0  0  0  0  0  0  0  0  0  0  0  0
   -3.9790    7.5080   12.3820 C   0  0  0  0  0  0  0  0  0  0  0  0
   -4.9710    8.1770   11.5950 C   0  0  0  0  0  0  0  0  0  0  0  0
   -4.6130    9.4050   10.9680 C   0  0  0  0  0  0  0  0  0  0  0  0
   -4.2960    6.2760   13.0470 N   0  0  0  0  0  0  0  0  0  0  0  0
   -4.0140    4.4650   14.6110 C   0  0  0  0  0  0  0  0  0  0  0  0
   -3.2500    3.3330   14.9720 C   0  0  0  0  0  0  0  0  0  0  0  0
   -3.8010    2.2330   15.6740 C   0  0  0  0  0  0  0  0  0  0  0  0
   -5.1670    2.2300   16.0110 C   0  0  0  0  0  0  0  0  0  0  0  0
   -5.9770    3.3330   15.6380 C   0  0  0  0  0  0  0  0  0  0  0  0
   -5.4020    4.4190   14.9140 C   0  0  0  0  0  0  0  0  0  0  0  0
   -5.8090    0.7640   16.8990 S   0  0  0  0  0  0  0  0  0  0  0  0
   -7.3370    0.8270   16.7110 O   0  0  0  0  0  0  0  0  0  0  0  0
   -5.3660    0.8300   18.3050 O   0  0  0  0  0  0  0  0  0  0  0  0
   -5.2500   -0.4930   16.0210 N   0  0  0  0  0  0  0  0  0  0  0  0
   -6.3330    7.6820   11.4330 N   0  0  0  0  0  0  0  0  0  0  0  0
   -7.0410    8.1600   10.5750 O   0  0  0  0  0  0  0  0  0  0  0  0
   -6.8670    6.7860   12.2400 O   0  0  0  0  0  0  0  0  0  0  0  0
   -5.6140   10.0430   10.1920 N   0  0  0  0  0  0  0  0  0  0  0  0
   -5.4700   11.3370    9.6160 C   0  0  0  0  0  0  0  0  0  0  0  0
   -5.7580   12.6040   10.4040 C   0  0  0  0  0  0  0  0  0  0  0  0
   -4.7090   13.2770   11.1040 C   0  0  0  0  0  0  0  0  0  0  0  0
   -4.9420   14.5060   11.7980 C   0  0  0  0  0  0  0  0  0  0  0  0
   -6.2240   15.0810   11.8120 C   0  0  0  0  0  0  0  0  0  0  0  0
   -7.2800   14.4430   11.0790 C   0  0  0  0  0  0  0  0  0  0  0  0
   -7.0350   13.2160   10.3780 C   0  0  0  0  0  0  0  0  0  0  0  0
   -3.3440    5.6090   13.8740 C   0  0  0  0  0  0  0  0  0  0  0  0
  2  1  2  0
  6  1  1  0
  3  2  1  0
  4  3  2  0
  5  4  1  0
  7  4  1  0
  6  5  2  0
 18  5  1  0
 21  6  1  0
 29  7  1  0
  9  8  2  0
 13  8  1  0
 29  8  1  0
 10  9  1  0
 11 10  2  0
 12 11  1  0
 14 11  1  0
 13 12  2  0
 15 14  2  0
 16 14  2  0
 17 14  1  0
 19 18  1  0
 20 18  2  0
 22 21  1  0
 23 22  1  0
 24 23  2  0
 28 23  1  0
 25 24  1  0
 26 25  2  0
 27 26  1  0
 28 27  2  0
M  CHG  2  18   1  19  -1
A    1
N1
A    2
C2
A    3
N3
A    4
C4
A    5
C5
A    6
C6
A    7
N7
A    8
C8
A    9
C9
A   10
C10
A   11
C11
A   12
C12
A   13
C13
A   14
S14
A   15
O15
A   16
O16
A   17
N17
A   18
N18
A   19
O19
A   20
O20
A   21
N21
A   22
C22
A   23
C23
A   24
C24
A   25
C25
A   26
C26
A   27
C27
A   28
C28
A   29
C29
M  END
>  <Id>  (141) 
3MHM_J75_A_264

>  <ChainId>  (141) 
A

>  <AsymId>  (141) 
D

>  <SeqNum>  (141) 
264

>  <Name>  (141) 
4-({[6-(benzylamino)-5-nitropyrimidin-4-yl]amino}methyl)benzenesulfonamide

>  <SystematicName>  (141) 
4-[[[5-nitro-6-(phenylmethylamino)pyrimidin-4-yl]amino]methyl]benzenesulfonamide

>  <Synonyms>  (141) 
4-{[N-(6-benzylamino-5-nitropyrimidin-4-yl)amino]methyl}benzenesulfonamide

>  <Type>  (141) 
NON-POLYMER

>  <Formula>  (141) 
C18 H18 N6 O4 S

>  <ObservedFormula>  (141) 
C18 S N6 O4

>  <MolecularWeight>  (141) 
414.438

>  <ModifiedDate>  (141) 
2011-06-04

>  <Parent>  (141) 


>  <OneLetterCode>  (141) 


>  <SubcomponentList>  (141) 


>  <AmbiguousFlag>  (141) 
N

>  <InsertionCode>  (141) 


>  <InstanceId>  (141) 
3MHM_J75_A_264

>  <ChemCompId>  (141) 
J75

>  <PdbId>  (141) 
3MHM

>  <ResidueNumber>  (141) 
264

>  <InChI>  (141) 
InChI=1S/C18H18N6O4S/c19-29(27,28)15-8-6-14(7-9-15)11-21-18-16(24(25)26)17(22-12-23-18)20-10-13-4-2-1-3-5-13/h1-9,12H,10-11H2,(H2,19,27,28)(H2,20,21,22,23)

>  <InChIKey>  (141) 
NWXVSHBDWSMVNZ-UHFFFAOYSA-N

>  <SMILES>  (141) 
c1ccc(cc1)CNc2c(c(ncn2)NCc3ccc(cc3)S(=O)(=O)N)[N+](=O)[O-]

>  <MissingHeavyAtoms>  (141) 
0

>  <Model>  (141) 
1

>  <AltIds>  (141) 


>  <pKI>  (141) 
4.32

>  <ChemblID>  (141) 
CHEMBL3326429

>  <standardized_canonical_smiles>  (141) 
Cc1cccn(O)c1=S

$$$$
3MHC_ARZ_A_263
     RDKit          3D

 22 25  0  0  0  0  0  0  0  0999 V2000
   -5.3240   -0.3420   16.1320 N   0  0  0  0  0  0  0  0  0  0  0  0
   -6.4720    5.7780   13.4580 O   0  0  0  0  0  0  0  0  0  0  0  0
   -5.2590    1.1530   17.9920 O   0  0  0  0  0  0  0  0  0  0  0  0
   -7.1990    1.1260   16.5130 O   0  0  0  0  0  0  0  0  0  0  0  0
   -3.9290    8.1600    9.7660 C   0  0  0  0  0  0  0  0  0  0  0  0
   -6.2900    7.9740    9.2340 C   0  0  0  0  0  0  0  0  0  0  0  0
   -5.4640    9.3840   10.8290 C   0  0  0  0  0  0  0  0  0  0  0  0
   -4.8280    6.4280   10.5470 C   0  0  0  0  0  0  0  0  0  0  0  0
   -3.9970    7.6910   12.0380 C   0  0  0  0  0  0  0  0  0  0  0  0
   -6.5030    7.6170   11.7280 C   0  0  0  0  0  0  0  0  0  0  0  0
   -3.5310    3.5300   14.8100 N   0  0  0  0  0  0  0  0  0  0  0  0
   -3.7320    2.3670   15.6680 N   0  0  0  0  0  0  0  0  0  0  0  0
   -4.1090    5.2460   13.6150 N   0  0  0  0  0  0  0  0  0  0  0  0
   -5.8590    3.4430   14.9650 S   0  0  0  0  0  0  0  0  0  0  0  0
   -5.3300    5.9360   13.1980 C   0  0  0  0  0  0  0  0  0  0  0  0
   -4.6410    4.2220   14.3480 C   0  0  0  0  0  0  0  0  0  0  0  0
   -5.0800    2.2610   15.7990 C   0  0  0  0  0  0  0  0  0  0  0  0
   -4.9730    7.1910    9.3070 C   0  0  0  0  0  0  0  0  0  0  0  0
   -4.1640    8.8230   11.0960 C   0  0  0  0  0  0  0  0  0  0  0  0
   -6.6230    8.6120   10.6140 C   0  0  0  0  0  0  0  0  0  0  0  0
   -5.2200    6.8700   11.8520 C   0  0  0  0  0  0  0  0  0  0  0  0
   -5.8480    0.8850   16.6140 S   0  0  0  0  0  0  0  0  0  0  0  0
 22  1  1  0
 15  2  2  0
 22  3  2  0
 22  4  2  0
 18  5  1  0
 19  5  1  0
 18  6  1  0
 20  6  1  0
 19  7  1  0
 20  7  1  0
 18  8  1  0
 21  8  1  0
 19  9  1  0
 21  9  1  0
 20 10  1  0
 21 10  1  0
 12 11  1  0
 16 11  2  0
 17 12  2  0
 15 13  1  0
 16 13  1  0
 16 14  1  0
 17 14  1  0
 21 15  1  0
 22 17  1  0
A    1
NAA
A    2
OAB
A    3
OAC
A    4
OAD
A    5
CAE
A    6
CAF
A    7
CAG
A    8
CAH
A    9
CAI
A   10
CAJ
A   11
NAK
A   12
NAL
A   13
NAM
A   14
SAN
A   15
CAO
A   16
CAP
A   17
CAQ
A   18
CAR
A   19
CAS
A   20
CAT
A   21
CAU
A   22
SAV
M  END
>  <Id>  (142) 
3MHC_ARZ_A_263

>  <ChainId>  (142) 
A

>  <AsymId>  (142) 
C

>  <SeqNum>  (142) 
263

>  <Name>  (142) 
(3S,5S,7S)-N-(5-sulfamoyl-1,3,4-thiadiazol-2-yl)tricyclo[3.3.1.1~3,7~]decane-1-carboxamide

>  <SystematicName>  (142) 
N-(5-sulfamoyl-1,3,4-thiadiazol-2-yl)adamantane-1-carboxamide

>  <Synonyms>  (142) 
5-(1-adamantylcarboxamido)-1,3,4-thiadiazole-2-sulfonamide

>  <Type>  (142) 
NON-POLYMER

>  <Formula>  (142) 
C13 H18 N4 O3 S2

>  <ObservedFormula>  (142) 
C13 S2 N4 O3

>  <MolecularWeight>  (142) 
342.437

>  <ModifiedDate>  (142) 
2011-06-04

>  <Parent>  (142) 


>  <OneLetterCode>  (142) 


>  <SubcomponentList>  (142) 


>  <AmbiguousFlag>  (142) 
N

>  <InsertionCode>  (142) 


>  <InstanceId>  (142) 
3MHC_ARZ_A_263

>  <ChemCompId>  (142) 
ARZ

>  <PdbId>  (142) 
3MHC

>  <ResidueNumber>  (142) 
263

>  <InChI>  (142) 
InChI=1S/C13H18N4O3S2/c14-22(19,20)12-17-16-11(21-12)15-10(18)13-4-7-1-8(5-13)3-9(2-7)6-13/h7-9H,1-6H2,(H2,14,19,20)(H,15,16,18)/t7-,8+,9-,13-

>  <InChIKey>  (142) 
NBKDQESIWDNDOT-LZFPZTGBSA-N

>  <SMILES>  (142) 
C1C2CC3CC1CC(C2)(C3)C(=O)Nc4nnc(s4)S(=O)(=O)N

>  <MissingHeavyAtoms>  (142) 
0

>  <Model>  (142) 
1

>  <AltIds>  (142) 


>  <pKI>  (142) 
4.32

>  <ChemblID>  (142) 
CHEMBL3326429

>  <standardized_canonical_smiles>  (142) 
Cc1cccn(O)c1=S

$$$$
4RUZ_3W8_A_303
     RDKit          3D

 13 13  0  0  0  0  0  0  0  0999 V2000
   14.3480   -1.0220    7.6300 C   0  0  0  0  0  0  0  0  0  0  0  0
   15.1560   -1.4030    8.8460 C   0  0  0  0  0  0  0  0  0  0  0  0
   14.4640   -2.4010    9.5530 O   0  0  0  0  0  0  0  0  0  0  0  0
   13.6250   -1.9820   10.5930 C   0  0  0  0  0  0  0  0  0  0  0  0
   13.0050   -0.5980   10.6050 C   0  0  0  0  0  0  0  0  0  0  0  0
   12.2000   -0.2380   11.6180 C   0  0  0  0  0  0  0  0  0  0  0  0
   11.9080   -1.2250   12.7200 C   0  0  0  0  0  0  0  0  0  0  0  0
   10.8400   -0.7590   14.0390 S   0  0  0  0  0  0  0  0  0  0  0  0
    9.9520   -1.8570   14.3190 O   0  0  0  0  0  0  0  0  0  0  0  0
   11.5540   -0.6140   15.2860 O   0  0  0  0  0  0  0  0  0  0  0  0
   10.0630    0.6240   13.6540 N   0  0  0  0  0  0  0  0  0  0  0  0
   12.4440   -2.4610   12.7100 C   0  0  0  0  0  0  0  0  0  0  0  0
   13.3550   -2.8570   11.5780 C   0  0  0  0  0  0  0  0  0  0  0  0
  2  1  1  0
  3  2  1  0
  4  3  1  0
  5  4  2  0
 13  4  1  0
  6  5  1  0
  7  6  2  0
  8  7  1  0
 12  7  1  0
  9  8  2  0
 10  8  2  0
 11  8  1  0
 13 12  2  0
A    1
CAM
A    2
CAL
A    3
OAH
A    4
CAD
A    5
CAC
A    6
CAB
A    7
CAA
A    8
SAG
A    9
OAI
A   10
OAJ
A   11
NAK
A   12
CAF
A   13
CAE
M  END
>  <Id>  (143) 
4RUZ_3W8_A_303

>  <ChainId>  (143) 
A

>  <AsymId>  (143) 
D

>  <SeqNum>  (143) 
303

>  <Name>  (143) 
4-ethoxybenzenesulfonamide

>  <SystematicName>  (143) 
4-ethoxybenzenesulfonamide

>  <Synonyms>  (143) 


>  <Type>  (143) 
NON-POLYMER

>  <Formula>  (143) 
C8 H11 N O3 S

>  <ObservedFormula>  (143) 
C8 S N O3

>  <MolecularWeight>  (143) 
201.243

>  <ModifiedDate>  (143) 
2015-04-17

>  <Parent>  (143) 


>  <OneLetterCode>  (143) 


>  <SubcomponentList>  (143) 


>  <AmbiguousFlag>  (143) 
N

>  <InsertionCode>  (143) 


>  <InstanceId>  (143) 
4RUZ_3W8_A_303

>  <ChemCompId>  (143) 
3W8

>  <PdbId>  (143) 
4RUZ

>  <ResidueNumber>  (143) 
303

>  <InChI>  (143) 
InChI=1S/C8H11NO3S/c1-2-12-7-3-5-8(6-4-7)13(9,10)11/h3-6H,2H2,1H3,(H2,9,10,11)

>  <InChIKey>  (143) 
ILKGEOVHANZEFC-UHFFFAOYSA-N

>  <SMILES>  (143) 
CCOc1ccc(cc1)S(=O)(=O)N

>  <MissingHeavyAtoms>  (143) 
0

>  <Model>  (143) 
1

>  <AltIds>  (143) 


>  <pKI>  (143) 
7.64

>  <ChemblID>  (143) 
CHEMBL3402958

>  <standardized_canonical_smiles>  (143) 
CCOc1ccc(S(N)(=O)=O)cc1

$$$$
6I1U_3W8_A_307
     RDKit          3D

 13 13  0  0  0  0  0  0  0  0999 V2000
    0.4420    7.5750   82.8090 C   0  0  0  0  0  0  0  0  0  0  0  0
    0.3100    6.2470   83.4880 C   0  0  0  0  0  0  0  0  0  0  0  0
   -1.0430    6.1200   83.9420 O   0  0  0  0  0  0  0  0  0  0  0  0
   -1.4020    4.9680   84.5980 C   0  0  0  0  0  0  0  0  0  0  0  0
   -2.7170    4.8890   85.0160 C   0  0  0  0  0  0  0  0  0  0  0  0
   -3.1840    3.7600   85.6640 C   0  0  0  0  0  0  0  0  0  0  0  0
   -2.3270    2.6980   85.8940 C   0  0  0  0  0  0  0  0  0  0  0  0
   -2.9260    1.2980   86.7930 S   0  0  0  0  0  0  0  0  0  0  0  0
   -2.3860    1.4260   88.1100 O   0  0  0  0  0  0  0  0  0  0  0  0
   -4.3630    1.3370   86.6720 O   0  0  0  0  0  0  0  0  0  0  0  0
   -2.3600   -0.0250   86.0940 N   0  0  0  0  0  0  0  0  0  0  0  0
   -0.9890    2.7850   85.5160 C   0  0  0  0  0  0  0  0  0  0  0  0
   -0.5330    3.9250   84.8610 C   0  0  0  0  0  0  0  0  0  0  0  0
  2  1  1  0
  3  2  1  0
  4  3  1  0
  5  4  2  0
 13  4  1  0
  6  5  1  0
  7  6  2  0
  8  7  1  0
 12  7  1  0
  9  8  2  0
 10  8  2  0
 11  8  1  0
 13 12  2  0
A    1
CAM
A    2
CAL
A    3
OAH
A    4
CAD
A    5
CAC
A    6
CAB
A    7
CAA
A    8
SAG
A    9
OAI
A   10
OAJ
A   11
NAK
A   12
CAF
A   13
CAE
M  END
>  <Id>  (144) 
6I1U_3W8_A_307

>  <ChainId>  (144) 
A

>  <AsymId>  (144) 
H

>  <SeqNum>  (144) 
307

>  <Name>  (144) 
4-ethoxybenzenesulfonamide

>  <SystematicName>  (144) 
4-ethoxybenzenesulfonamide

>  <Synonyms>  (144) 


>  <Type>  (144) 
NON-POLYMER

>  <Formula>  (144) 
C8 H11 N O3 S

>  <ObservedFormula>  (144) 
C8 S N O3

>  <MolecularWeight>  (144) 
201.243

>  <ModifiedDate>  (144) 
2015-04-17

>  <Parent>  (144) 


>  <OneLetterCode>  (144) 


>  <SubcomponentList>  (144) 


>  <AmbiguousFlag>  (144) 
N

>  <InsertionCode>  (144) 


>  <InstanceId>  (144) 
6I1U_3W8_A_307

>  <ChemCompId>  (144) 
3W8

>  <PdbId>  (144) 
6I1U

>  <ResidueNumber>  (144) 
307

>  <InChI>  (144) 
InChI=1S/C8H11NO3S/c1-2-12-7-3-5-8(6-4-7)13(9,10)11/h3-6H,2H2,1H3,(H2,9,10,11)

>  <InChIKey>  (144) 
ILKGEOVHANZEFC-UHFFFAOYSA-N

>  <SMILES>  (144) 
CCOc1ccc(cc1)S(=O)(=O)N

>  <MissingHeavyAtoms>  (144) 
0

>  <Model>  (144) 
1

>  <AltIds>  (144) 


>  <pKI>  (144) 
7.64

>  <ChemblID>  (144) 
CHEMBL3402958

>  <standardized_canonical_smiles>  (144) 
CCOc1ccc(S(N)(=O)=O)cc1

$$$$
4RUY_3W6_A_305
     RDKit          3D

 14 14  0  0  0  0  0  0  0  0999 V2000
   16.5060   -2.2730    6.8000 C   0  0  0  0  0  0  0  0  0  0  0  0
   15.0890   -1.9410    7.2210 C   0  0  0  0  0  0  0  0  0  0  0  0
   15.0490   -1.5050    8.6770 C   0  0  0  0  0  0  0  0  0  0  0  0
   14.4530   -2.5150    9.4630 O   0  0  0  0  0  0  0  0  0  0  0  0
   13.6130   -2.1140   10.5190 C   0  0  0  0  0  0  0  0  0  0  0  0
   12.4490   -1.1840   10.2570 C   0  0  0  0  0  0  0  0  0  0  0  0
   11.6430   -0.8100   11.2650 C   0  0  0  0  0  0  0  0  0  0  0  0
   11.8800   -1.3290   12.6630 C   0  0  0  0  0  0  0  0  0  0  0  0
   10.7770   -0.8240   13.9610 S   0  0  0  0  0  0  0  0  0  0  0  0
   11.4820   -0.5310   15.1910 O   0  0  0  0  0  0  0  0  0  0  0  0
   10.1340    0.4260   13.6740 O   0  0  0  0  0  0  0  0  0  0  0  0
    9.6880   -2.0130   14.2080 N   0  0  0  0  0  0  0  0  0  0  0  0
   12.9060   -2.1730   12.9010 C   0  0  0  0  0  0  0  0  0  0  0  0
   13.8200   -2.5860   11.7650 C   0  0  0  0  0  0  0  0  0  0  0  0
  2  1  1  0
  3  2  1  0
  4  3  1  0
  5  4  1  0
  6  5  2  0
 14  5  1  0
  7  6  1  0
  8  7  2  0
  9  8  1  0
 13  8  1  0
 10  9  2  0
 11  9  2  0
 12  9  1  0
 14 13  2  0
A    1
CAN
A    2
CAM
A    3
CAL
A    4
OAH
A    5
CAD
A    6
CAC
A    7
CAB
A    8
CAA
A    9
SAG
A   10
OAI
A   11
OAJ
A   12
NAK
A   13
CAF
A   14
CAE
M  END
>  <Id>  (145) 
4RUY_3W6_A_305

>  <ChainId>  (145) 
A

>  <AsymId>  (145) 
D

>  <SeqNum>  (145) 
305

>  <Name>  (145) 
4-propoxybenzenesulfonamide

>  <SystematicName>  (145) 
4-propoxybenzenesulfonamide

>  <Synonyms>  (145) 


>  <Type>  (145) 
NON-POLYMER

>  <Formula>  (145) 
C9 H13 N O3 S

>  <ObservedFormula>  (145) 
C9 S N O3

>  <MolecularWeight>  (145) 
215.269

>  <ModifiedDate>  (145) 
2015-04-17

>  <Parent>  (145) 


>  <OneLetterCode>  (145) 


>  <SubcomponentList>  (145) 


>  <AmbiguousFlag>  (145) 
N

>  <InsertionCode>  (145) 


>  <InstanceId>  (145) 
4RUY_3W6_A_305

>  <ChemCompId>  (145) 
3W6

>  <PdbId>  (145) 
4RUY

>  <ResidueNumber>  (145) 
305

>  <InChI>  (145) 
InChI=1S/C9H13NO3S/c1-2-7-13-8-3-5-9(6-4-8)14(10,11)12/h3-6H,2,7H2,1H3,(H2,10,11,12)

>  <InChIKey>  (145) 
GWLVKQMJYAXAFM-UHFFFAOYSA-N

>  <SMILES>  (145) 
CCCOc1ccc(cc1)S(=O)(=O)N

>  <MissingHeavyAtoms>  (145) 
0

>  <Model>  (145) 
1

>  <AltIds>  (145) 


>  <pKI>  (145) 
7.89

>  <ChemblID>  (145) 
CHEMBL3402959

>  <standardized_canonical_smiles>  (145) 
CCCOc1ccc(S(N)(=O)=O)cc1

$$$$
6I2F_3W6_A_306
     RDKit          3D

 14 14  0  0  0  0  0  0  0  0999 V2000
  -23.1630    8.3560   14.7560 C   0  0  0  0  0  0  0  0  0  0  0  0
  -23.4180    7.6400   13.4450 C   0  0  0  0  0  0  0  0  0  0  0  0
  -23.7140    6.1840   13.6610 C   0  0  0  0  0  0  0  0  0  0  0  0
  -25.0680    6.0630   14.1340 O   0  0  0  0  0  0  0  0  0  0  0  0
  -25.4690    4.8810   14.7050 C   0  0  0  0  0  0  0  0  0  0  0  0
  -24.6280    3.8030   14.8980 C   0  0  0  0  0  0  0  0  0  0  0  0
  -25.0970    2.6640   15.5460 C   0  0  0  0  0  0  0  0  0  0  0  0
  -26.4270    2.6080   15.9400 C   0  0  0  0  0  0  0  0  0  0  0  0
  -27.0360    1.1980   16.8290 S   0  0  0  0  0  0  0  0  0  0  0  0
  -28.4670    1.2450   16.6930 O   0  0  0  0  0  0  0  0  0  0  0  0
  -26.5010    1.2900   18.1500 O   0  0  0  0  0  0  0  0  0  0  0  0
  -26.4480   -0.1310   16.1070 N   0  0  0  0  0  0  0  0  0  0  0  0
  -27.2840    3.6680   15.7040 C   0  0  0  0  0  0  0  0  0  0  0  0
  -26.7920    4.8160   15.1010 C   0  0  0  0  0  0  0  0  0  0  0  0
  2  1  1  0
  3  2  1  0
  4  3  1  0
  5  4  1  0
  6  5  2  0
 14  5  1  0
  7  6  1  0
  8  7  2  0
  9  8  1  0
 13  8  1  0
 10  9  2  0
 11  9  2  0
 12  9  1  0
 14 13  2  0
A    1
CAN
A    2
CAM
A    3
CAL
A    4
OAH
A    5
CAD
A    6
CAC
A    7
CAB
A    8
CAA
A    9
SAG
A   10
OAI
A   11
OAJ
A   12
NAK
A   13
CAF
A   14
CAE
M  END
>  <Id>  (146) 
6I2F_3W6_A_306

>  <ChainId>  (146) 
A

>  <AsymId>  (146) 
G

>  <SeqNum>  (146) 
306

>  <Name>  (146) 
4-propoxybenzenesulfonamide

>  <SystematicName>  (146) 
4-propoxybenzenesulfonamide

>  <Synonyms>  (146) 


>  <Type>  (146) 
NON-POLYMER

>  <Formula>  (146) 
C9 H13 N O3 S

>  <ObservedFormula>  (146) 
C9 S N O3

>  <MolecularWeight>  (146) 
215.269

>  <ModifiedDate>  (146) 
2015-04-17

>  <Parent>  (146) 


>  <OneLetterCode>  (146) 


>  <SubcomponentList>  (146) 


>  <AmbiguousFlag>  (146) 
N

>  <InsertionCode>  (146) 


>  <InstanceId>  (146) 
6I2F_3W6_A_306

>  <ChemCompId>  (146) 
3W6

>  <PdbId>  (146) 
6I2F

>  <ResidueNumber>  (146) 
306

>  <InChI>  (146) 
InChI=1S/C9H13NO3S/c1-2-7-13-8-3-5-9(6-4-8)14(10,11)12/h3-6H,2,7H2,1H3,(H2,10,11,12)

>  <InChIKey>  (146) 
GWLVKQMJYAXAFM-UHFFFAOYSA-N

>  <SMILES>  (146) 
CCCOc1ccc(cc1)S(=O)(=O)N

>  <MissingHeavyAtoms>  (146) 
0

>  <Model>  (146) 
1

>  <AltIds>  (146) 


>  <pKI>  (146) 
7.89

>  <ChemblID>  (146) 
CHEMBL3402959

>  <standardized_canonical_smiles>  (146) 
CCCOc1ccc(S(N)(=O)=O)cc1

$$$$
6I3E_H1Z_A_310
     RDKit          3D

 14 14  0  0  0  0  0  0  0  0999 V2000
   13.4920   -1.8620   10.7220 C   0  0  0  0  0  0  0  0  0  0  0  0
   13.2420   -0.5250   10.9780 C   0  0  0  0  0  0  0  0  0  0  0  0
   12.3830   -0.1690   12.0020 C   0  0  0  0  0  0  0  0  0  0  0  0
   11.7810   -1.1600   12.7590 C   0  0  0  0  0  0  0  0  0  0  0  0
   12.0280   -2.4980   12.5070 C   0  0  0  0  0  0  0  0  0  0  0  0
   12.8860   -2.8490   11.4810 C   0  0  0  0  0  0  0  0  0  0  0  0
    9.8590   -1.8710   14.3390 O   0  0  0  0  0  0  0  0  0  0  0  0
   10.6620   -0.7150   14.0510 S   0  0  0  0  0  0  0  0  0  0  0  0
   10.0040    0.4950   13.6530 O   0  0  0  0  0  0  0  0  0  0  0  0
   11.5050   -0.3820   15.3770 N   0  0  0  0  0  0  0  0  0  0  0  0
   14.3350   -2.2410    9.7110 O   0  0  0  0  0  0  0  0  0  0  0  0
   14.5450   -3.6460    9.5150 C   0  0  0  0  0  0  0  0  0  0  0  0
   15.0800   -3.8640    8.1230 C   0  0  0  0  0  0  0  0  0  0  0  0
   15.4870   -5.3150    7.9010 C   0  0  0  0  0  0  0  0  0  0  0  0
  2  1  2  0
  6  1  1  0
 11  1  1  0
  3  2  1  0
  4  3  2  0
  5  4  1  0
  8  4  1  0
  6  5  2  0
  8  7  2  0
  9  8  2  0
 10  8  1  0
 12 11  1  0
 13 12  1  0
 14 13  1  0
A    1
C4
A    2
C5
A    3
C6
A    4
C7
A    5
C8
A    6
C9
A    7
O2
A    8
S
A    9
O1
A   10
N
A   11
O
A   12
C3
A   13
C2
A   14
C1
M  END
>  <Id>  (147) 
6I3E_H1Z_A_310

>  <ChainId>  (147) 
A

>  <AsymId>  (147) 
K

>  <SeqNum>  (147) 
310

>  <Name>  (147) 
4-butoxybenzenesulfonamide

>  <SystematicName>  (147) 
4-butoxybenzenesulfonamide

>  <Synonyms>  (147) 


>  <Type>  (147) 
NON-POLYMER

>  <Formula>  (147) 
C10 H15 N O3 S

>  <ObservedFormula>  (147) 
C9 S N O3

>  <MolecularWeight>  (147) 
229.296

>  <ModifiedDate>  (147) 
2019-11-15

>  <Parent>  (147) 


>  <OneLetterCode>  (147) 


>  <SubcomponentList>  (147) 


>  <AmbiguousFlag>  (147) 
N

>  <InsertionCode>  (147) 


>  <InstanceId>  (147) 
6I3E_H1Z_A_310

>  <ChemCompId>  (147) 
H1Z

>  <PdbId>  (147) 
6I3E

>  <ResidueNumber>  (147) 
310

>  <InChI>  (147) 
InChI=1S/C10H15NO3S/c1-2-3-8-14-9-4-6-10(7-5-9)15(11,12)13/h4-7H,2-3,8H2,1H3,(H2,11,12,13)

>  <InChIKey>  (147) 
GJCVWKPGGOMFQR-UHFFFAOYSA-N

>  <SMILES>  (147) 
CCCCOc1ccc(cc1)S(=O)(=O)N

>  <MissingHeavyAtoms>  (147) 
1

>  <Model>  (147) 
1

>  <AltIds>  (147) 


>  <pKI>  (147) 
8.14

>  <ChemblID>  (147) 
CHEMBL1338403

>  <standardized_canonical_smiles>  (147) 
CCCCOc1ccc(S(N)(=O)=O)cc1

$$$$
4RUX_3W3_A_309
     RDKit          3D

 14 14  0  0  0  0  0  0  0  0999 V2000
  -28.9680   -2.9640   11.6740 C   0  0  0  0  0  0  0  0  0  0  0  0
  -29.9500   -2.5580   12.7460 C   0  0  0  0  0  0  0  0  0  0  0  0
  -30.4610   -1.3140   12.7380 C   0  0  0  0  0  0  0  0  0  0  0  0
  -31.6150   -0.8250   13.9790 S   0  0  0  0  0  0  0  0  0  0  0  0
  -32.3600    0.3130   13.5340 O   0  0  0  0  0  0  0  0  0  0  0  0
  -32.5530   -1.8740   14.2500 O   0  0  0  0  0  0  0  0  0  0  0  0
  -30.8240   -0.4540   15.3660 N   0  0  0  0  0  0  0  0  0  0  0  0
  -30.0650   -0.3200   11.6700 C   0  0  0  0  0  0  0  0  0  0  0  0
  -29.1900   -0.6830   10.7150 C   0  0  0  0  0  0  0  0  0  0  0  0
  -28.6120   -2.0820   10.7200 C   0  0  0  0  0  0  0  0  0  0  0  0
  -27.6970   -2.4890    9.7400 O   0  0  0  0  0  0  0  0  0  0  0  0
  -27.6230   -1.7060    8.5730 C   0  0  0  0  0  0  0  0  0  0  0  0
  -26.7120   -2.4230    7.6000 C   0  0  0  0  0  0  0  0  0  0  0  0
  -26.1820   -1.5300    6.5050 C   0  0  0  0  0  0  0  0  0  0  0  0
  2  1  2  0
 10  1  1  0
  3  2  1  0
  4  3  1  0
  8  3  2  0
  5  4  2  0
  6  4  2  0
  7  4  1  0
  9  8  1  0
 10  9  2  0
 11 10  1  0
 12 11  1  0
 13 12  1  0
 14 13  2  0
A    1
CAC
A    2
CAB
A    3
CAA
A    4
SAG
A    5
OAL
A    6
OAM
A    7
NAN
A    8
CAF
A    9
CAE
A   10
CAD
A   11
OAH
A   12
CAI
A   13
CAJ
A   14
CAK
M  END
>  <Id>  (148) 
4RUX_3W3_A_309

>  <ChainId>  (148) 
A

>  <AsymId>  (148) 
D

>  <SeqNum>  (148) 
309

>  <Name>  (148) 
4-(allyloxy)benzenesulfonamide

>  <SystematicName>  (148) 
4-prop-2-enoxybenzenesulfonamide

>  <Synonyms>  (148) 
4-(prop-2-en-1-yloxy)benzenesulfonamide

>  <Type>  (148) 
NON-POLYMER

>  <Formula>  (148) 
C9 H11 N O3 S

>  <ObservedFormula>  (148) 
C9 S N O3

>  <MolecularWeight>  (148) 
213.254

>  <ModifiedDate>  (148) 
2015-04-17

>  <Parent>  (148) 


>  <OneLetterCode>  (148) 


>  <SubcomponentList>  (148) 


>  <AmbiguousFlag>  (148) 
N

>  <InsertionCode>  (148) 


>  <InstanceId>  (148) 
4RUX_3W3_A_309

>  <ChemCompId>  (148) 
3W3

>  <PdbId>  (148) 
4RUX

>  <ResidueNumber>  (148) 
309

>  <InChI>  (148) 
InChI=1S/C9H11NO3S/c1-2-7-13-8-3-5-9(6-4-8)14(10,11)12/h2-6H,1,7H2,(H2,10,11,12)

>  <InChIKey>  (148) 
OYORSBMGLVESSS-UHFFFAOYSA-N

>  <SMILES>  (148) 
C=CCOc1ccc(cc1)S(=O)(=O)N

>  <MissingHeavyAtoms>  (148) 
0

>  <Model>  (148) 
1

>  <AltIds>  (148) 


>  <pKI>  (148) 
7.92

>  <ChemblID>  (148) 
CHEMBL3402960

>  <standardized_canonical_smiles>  (148) 
C=CCOc1ccc(S(N)(=O)=O)cc1

$$$$
5NEA_8V8_A_303
     RDKit          3D

 16 17  0  0  0  0  0  0  0  0999 V2000
   13.0120   -0.8270   10.9600 C   0  0  0  0  0  0  0  0  0  0  0  0
   12.7290   -3.0970   11.6820 C   0  0  0  0  0  0  0  0  0  0  0  0
   11.9270   -2.6690   12.7260 C   0  0  0  0  0  0  0  0  0  0  0  0
   12.2060   -0.3890   11.9960 C   0  0  0  0  0  0  0  0  0  0  0  0
   13.2590   -2.1860   10.7670 C   0  0  0  0  0  0  0  0  0  0  0  0
   14.0960   -2.6360    9.6430 C   0  0  0  0  0  0  0  0  0  0  0  0
   14.7710   -2.0250    8.6510 C   0  0  0  0  0  0  0  0  0  0  0  0
   15.3310   -2.9480    7.7990 N   0  0  0  0  0  0  0  0  0  0  0  0
   14.9930   -4.0860    8.3050 C   0  0  0  0  0  0  0  0  0  0  0  0
   14.2810   -4.0040    9.4700 O   0  0  0  0  0  0  0  0  0  0  0  0
   15.3190   -5.4420    7.7990 C   0  0  0  0  0  0  0  0  0  0  0  0
   11.6580   -1.3150   12.8690 C   0  0  0  0  0  0  0  0  0  0  0  0
   10.6120   -0.7710   14.1820 S   0  0  0  0  0  0  0  0  0  0  0  0
   10.0650    0.4910   13.8020 O   0  0  0  0  0  0  0  0  0  0  0  0
    9.7180   -1.8540   14.4790 O   0  0  0  0  0  0  0  0  0  0  0  0
   11.5080   -0.5250   15.5020 N   0  0  0  0  0  0  0  0  0  0  0  0
  4  1  2  0
  5  1  1  0
  3  2  1  0
  5  2  2  0
 12  3  2  0
 12  4  1  0
  6  5  1  0
  7  6  2  0
 10  6  1  0
  8  7  1  0
  9  8  2  0
 10  9  1  0
 11  9  1  0
 13 12  1  0
 14 13  2  0
 15 13  2  0
 16 13  1  0
A    1
C2
A    2
C6
A    3
C5
A    4
C3
A    5
C1
A    6
C11
A    7
C12
A    8
N13
A    9
C14
A   10
O15
A   11
C16
A   12
C4
A   13
S7
A   14
O8
A   15
O9
A   16
N10
M  END
>  <Id>  (149) 
5NEA_8V8_A_303

>  <ChainId>  (149) 
A

>  <AsymId>  (149) 
D

>  <SeqNum>  (149) 
303

>  <Name>  (149) 
4-(2-methyl-1,3-oxazol-5-yl)benzenesulfonamide

>  <SystematicName>  (149) 
4-(2-methyl-1,3-oxazol-5-yl)benzenesulfonamide

>  <Synonyms>  (149) 


>  <Type>  (149) 
NON-POLYMER

>  <Formula>  (149) 
C10 H10 N2 O3 S

>  <ObservedFormula>  (149) 
C10 S N2 O3

>  <MolecularWeight>  (149) 
238.263

>  <ModifiedDate>  (149) 
2017-12-01

>  <Parent>  (149) 


>  <OneLetterCode>  (149) 


>  <SubcomponentList>  (149) 


>  <AmbiguousFlag>  (149) 
N

>  <InsertionCode>  (149) 


>  <InstanceId>  (149) 
5NEA_8V8_A_303

>  <ChemCompId>  (149) 
8V8

>  <PdbId>  (149) 
5NEA

>  <ResidueNumber>  (149) 
303

>  <InChI>  (149) 
InChI=1S/C10H10N2O3S/c1-7-12-6-10(15-7)8-2-4-9(5-3-8)16(11,13)14/h2-6H,1H3,(H2,11,13,14)

>  <InChIKey>  (149) 
FETRXICILYMBJH-UHFFFAOYSA-N

>  <SMILES>  (149) 
Cc1ncc(o1)c2ccc(cc2)S(=O)(=O)N

>  <MissingHeavyAtoms>  (149) 
0

>  <Model>  (149) 
1

>  <AltIds>  (149) 


>  <pKI>  (149) 
10.3

>  <ChemblID>  (149) 
CHEMBL3608870

>  <standardized_canonical_smiles>  (149) 
Cc1ncc(-c2ccc(S(N)(=O)=O)cc2)o1

$$$$
5NEE_8V5_A_302
     RDKit          3D

 22 24  0  0  0  0  0  0  0  0999 V2000
   -5.8300    0.9270   16.5530 S   0  0  0  0  0  0  0  0  0  0  0  0
   -4.9770    2.1220   15.5800 C   0  0  0  0  0  0  0  0  0  0  0  0
   -5.8140    3.4210   14.8170 S   0  0  0  0  0  0  0  0  0  0  0  0
   -4.3240    4.0920   14.2150 C   0  0  0  0  0  0  0  0  0  0  0  0
   -3.2520    3.3090   14.6030 C   0  0  0  0  0  0  0  0  0  0  0  0
   -3.6200    2.1930   15.3750 C   0  0  0  0  0  0  0  0  0  0  0  0
   -4.1860    5.3020   13.4290 C   0  0  0  0  0  0  0  0  0  0  0  0
   -3.2200    6.2000   13.1540 C   0  0  0  0  0  0  0  0  0  0  0  0
   -3.6970    7.1750   12.3050 N   0  0  0  0  0  0  0  0  0  0  0  0
   -4.9450    6.8360   12.0870 C   0  0  0  0  0  0  0  0  0  0  0  0
   -5.3170    5.7130   12.7440 O   0  0  0  0  0  0  0  0  0  0  0  0
   -5.9040    7.5040   11.1390 C   0  0  0  0  0  0  0  0  0  0  0  0
   -7.2310    1.1050   16.3310 O   0  0  0  0  0  0  0  0  0  0  0  0
   -5.2900    1.0400   17.8720 O   0  0  0  0  0  0  0  0  0  0  0  0
   -5.4160   -0.4900   15.9800 N   0  0  0  0  0  0  0  0  0  0  0  0
   -6.9960    6.9800   10.9150 O   0  0  0  0  0  0  0  0  0  0  0  0
   -5.5130    8.6250   10.5320 N   0  0  0  0  0  0  0  0  0  0  0  0
   -5.2970    9.7510   11.2600 C   0  0  0  0  0  0  0  0  0  0  0  0
   -3.8460   10.2340   11.2390 C   0  0  0  0  0  0  0  0  0  0  0  0
   -2.9870    9.2570   10.6470 O   0  0  0  0  0  0  0  0  0  0  0  0
   -3.4380    8.7980    9.3000 C   0  0  0  0  0  0  0  0  0  0  0  0
   -4.9280    8.5720    9.2200 C   0  0  0  0  0  0  0  0  0  0  0  0
  2  1  1  0
 13  1  2  0
 14  1  2  0
 15  1  1  0
  3  2  1  0
  6  2  2  0
  4  3  1  0
  5  4  2  0
  7  4  1  0
  6  5  1  0
  8  7  2  0
 11  7  1  0
  9  8  1  0
 10  9  2  0
 11 10  1  0
 12 10  1  0
 16 12  2  0
 17 12  1  0
 18 17  1  0
 22 17  1  0
 19 18  1  0
 20 19  1  0
 21 20  1  0
 22 21  1  0
A    1
S1
A    2
C1
A    3
S2
A    4
C3
A    5
C4
A    6
C5
A    7
C11
A    8
C12
A    9
N13
A   10
C14
A   11
O15
A   12
C16
A   13
O22
A   14
O23
A   15
N24
A   16
O25
A   17
N2
A   18
C6
A   19
C7
A   20
O8
A   21
C9
A   22
C10
M  END
>  <Id>  (150) 
5NEE_8V5_A_302

>  <ChainId>  (150) 
A

>  <AsymId>  (150) 
C

>  <SeqNum>  (150) 
302

>  <Name>  (150) 
5-(2-morpholin-4-ylcarbonyl-1,3-oxazol-5-yl)thiophene-2-sulfonamide

>  <SystematicName>  (150) 
5-(2-morpholin-4-ylcarbonyl-1,3-oxazol-5-yl)thiophene-2-sulfonamide

>  <Synonyms>  (150) 


>  <Type>  (150) 
NON-POLYMER

>  <Formula>  (150) 
C12 H13 N3 O5 S2

>  <ObservedFormula>  (150) 
S2 C12 N3 O5

>  <MolecularWeight>  (150) 
343.379

>  <ModifiedDate>  (150) 
2017-12-01

>  <Parent>  (150) 


>  <OneLetterCode>  (150) 


>  <SubcomponentList>  (150) 


>  <AmbiguousFlag>  (150) 
N

>  <InsertionCode>  (150) 


>  <InstanceId>  (150) 
5NEE_8V5_A_302

>  <ChemCompId>  (150) 
8V5

>  <PdbId>  (150) 
5NEE

>  <ResidueNumber>  (150) 
302

>  <InChI>  (150) 
InChI=1S/C12H13N3O5S2/c13-22(17,18)10-2-1-9(21-10)8-7-14-11(20-8)12(16)15-3-5-19-6-4-15/h1-2,7H,3-6H2,(H2,13,17,18)

>  <InChIKey>  (150) 
SEWMPRFPDFLTDN-UHFFFAOYSA-N

>  <SMILES>  (150) 
c1cc(sc1c2cnc(o2)C(=O)N3CCOCC3)S(=O)(=O)N

>  <MissingHeavyAtoms>  (150) 
0

>  <Model>  (150) 
1

>  <AltIds>  (150) 


>  <pKI>  (150) 
10.7

>  <ChemblID>  (150) 
CHEMBL3608889

>  <standardized_canonical_smiles>  (150) 
NS(=O)(=O)c1ccc(-c2cnc(C(=O)N3CCOCC3)o2)s1

$$$$
4Z0Q_4K9_A_1002
     RDKit          3D

 22 24  0  0  0  0  0  0  0  0999 V2000
   19.1520    9.7130   14.5320 C   0  0  0  0  0  0  0  0  0  0  0  0
   21.4080   10.0200   12.7930 C   0  0  0  0  0  0  0  0  0  0  0  0
   20.5860    8.8590   12.7510 C   0  0  0  0  0  0  0  0  0  0  0  0
   17.4990    7.4720   14.0050 C   0  0  0  0  0  0  0  0  0  0  0  0
   16.9040    6.2550   14.6850 C   0  0  0  0  0  0  0  0  0  0  0  0
   19.9710   10.8280   14.5360 C   0  0  0  0  0  0  0  0  0  0  0  0
   19.4880    8.7460   13.6070 C   0  0  0  0  0  0  0  0  0  0  0  0
   19.5610    6.4170   13.5840 C   0  0  0  0  0  0  0  0  0  0  0  0
   20.7050    6.4450   12.5860 C   0  0  0  0  0  0  0  0  0  0  0  0
   20.9030    7.7210   11.8120 C   0  0  0  0  0  0  0  0  0  0  0  0
   13.6140    2.7020   16.6840 O   0  0  0  0  0  0  0  0  0  0  0  0
   15.0610    2.6650   16.7920 S   0  0  0  0  0  0  0  0  0  0  0  0
   15.6330    2.7730   18.1090 O   0  0  0  0  0  0  0  0  0  0  0  0
   15.5900    1.3320   16.1570 N   0  0  0  0  0  0  0  0  0  0  0  0
   15.7080    4.0370   15.9230 C   0  0  0  0  0  0  0  0  0  0  0  0
   17.0820    4.1200   15.7290 C   0  0  0  0  0  0  0  0  0  0  0  0
   17.6630    5.2060   15.1320 C   0  0  0  0  0  0  0  0  0  0  0  0
   14.8860    5.1090   15.4870 C   0  0  0  0  0  0  0  0  0  0  0  0
   15.5370    6.2060   14.8150 C   0  0  0  0  0  0  0  0  0  0  0  0
   16.7600    8.3850   13.7460 O   0  0  0  0  0  0  0  0  0  0  0  0
   18.7130    7.5380   13.5460 N   0  0  0  0  0  0  0  0  0  0  0  0
   21.0460   10.9590   13.7140 C   0  0  0  0  0  0  0  0  0  0  0  0
  6  1  2  0
  7  1  1  0
  3  2  1  0
 22  2  2  0
  7  3  2  0
 10  3  1  0
  5  4  1  0
 20  4  2  0
 21  4  1  0
 17  5  2  0
 19  5  1  0
 22  6  1  0
 21  7  1  0
  9  8  1  0
 21  8  1  0
 10  9  1  0
 12 11  2  0
 13 12  2  0
 14 12  1  0
 15 12  1  0
 16 15  2  0
 18 15  1  0
 17 16  1  0
 19 18  2  0
A    1
C2
A    2
C3
A    3
C4
A    4
C9
A    5
C10
A    6
C1
A    7
C5
A    8
C6
A    9
C7
A   10
C8
A   11
O2
A   12
S
A   13
O1
A   14
N1
A   15
C13
A   16
C12
A   17
C11
A   18
C14
A   19
C15
A   20
O
A   21
N
A   22
C
M  END
>  <Id>  (151) 
4Z0Q_4K9_A_1002

>  <ChainId>  (151) 
A

>  <AsymId>  (151) 
C

>  <SeqNum>  (151) 
1002

>  <Name>  (151) 
4-(3,4-dihydroquinolin-1(2H)-ylcarbonyl)benzenesulfonamide

>  <SystematicName>  (151) 
4-(3,4-dihydro-2H-quinolin-1-ylcarbonyl)benzenesulfonamide

>  <Synonyms>  (151) 


>  <Type>  (151) 
NON-POLYMER

>  <Formula>  (151) 
C16 H16 N2 O3 S

>  <ObservedFormula>  (151) 
C16 S N2 O3

>  <MolecularWeight>  (151) 
316.375

>  <ModifiedDate>  (151) 
2015-08-21

>  <Parent>  (151) 


>  <OneLetterCode>  (151) 


>  <SubcomponentList>  (151) 


>  <AmbiguousFlag>  (151) 
N

>  <InsertionCode>  (151) 


>  <InstanceId>  (151) 
4Z0Q_4K9_A_1002

>  <ChemCompId>  (151) 
4K9

>  <PdbId>  (151) 
4Z0Q

>  <ResidueNumber>  (151) 
1002

>  <InChI>  (151) 
InChI=1S/C16H16N2O3S/c17-22(20,21)14-9-7-13(8-10-14)16(19)18-11-3-5-12-4-1-2-6-15(12)18/h1-2,4,6-10H,3,5,11H2,(H2,17,20,21)

>  <InChIKey>  (151) 
UVLCSZMJFKEEJN-UHFFFAOYSA-N

>  <SMILES>  (151) 
c1ccc2c(c1)CCCN2C(=O)c3ccc(cc3)S(=O)(=O)N

>  <MissingHeavyAtoms>  (151) 
0

>  <Model>  (151) 
1

>  <AltIds>  (151) 


>  <pKI>  (151) 
8.17

>  <ChemblID>  (151) 
CHEMBL3613783

>  <standardized_canonical_smiles>  (151) 
NS(=O)(=O)c1ccc(C(=O)N2CCCc3ccccc32)cc1

$$$$
4Z1J_4KC_A_302
     RDKit          3D

 22 24  0  0  0  0  0  0  0  0999 V2000
   18.6380   11.1480   11.6990 C   0  0  0  0  0  0  0  0  0  0  0  0
   18.5440    9.9870   12.4930 C   0  0  0  0  0  0  0  0  0  0  0  0
   16.3930    7.2090   13.0610 C   0  0  0  0  0  0  0  0  0  0  0  0
   16.1480    6.0820   14.0040 C   0  0  0  0  0  0  0  0  0  0  0  0
   17.8630    8.7660   11.8870 C   0  0  0  0  0  0  0  0  0  0  0  0
   18.7110    7.6220   13.8490 C   0  0  0  0  0  0  0  0  0  0  0  0
   18.9580    8.8490   14.6960 C   0  0  0  0  0  0  0  0  0  0  0  0
   19.0420   10.0220   13.8310 C   0  0  0  0  0  0  0  0  0  0  0  0
   15.4060    7.5740   12.3780 O   0  0  0  0  0  0  0  0  0  0  0  0
   16.9990    4.9470   14.0180 C   0  0  0  0  0  0  0  0  0  0  0  0
   16.6790    3.8920   14.8830 C   0  0  0  0  0  0  0  0  0  0  0  0
   15.0400    6.1380   14.8220 C   0  0  0  0  0  0  0  0  0  0  0  0
   14.7470    5.0770   15.6480 C   0  0  0  0  0  0  0  0  0  0  0  0
   15.5550    3.9210   15.7300 C   0  0  0  0  0  0  0  0  0  0  0  0
   15.1130    2.6380   16.7860 S   0  0  0  0  0  0  0  0  0  0  0  0
   15.6950    1.2800   16.1550 N   0  0  0  0  0  0  0  0  0  0  0  0
   13.6400    2.6720   16.7860 O   0  0  0  0  0  0  0  0  0  0  0  0
   15.7510    2.8730   18.0340 O   0  0  0  0  0  0  0  0  0  0  0  0
   17.6270    7.7680   12.9110 N   0  0  0  0  0  0  0  0  0  0  0  0
   19.6650   11.1630   14.3780 C   0  0  0  0  0  0  0  0  0  0  0  0
   19.7610   12.3090   13.5780 C   0  0  0  0  0  0  0  0  0  0  0  0
   19.2480   12.2900   12.2550 C   0  0  0  0  0  0  0  0  0  0  0  0
  2  1  2  0
 22  1  1  0
  5  2  1  0
  8  2  1  0
  4  3  1  0
  9  3  2  0
 19  3  1  0
 10  4  2  0
 12  4  1  0
 19  5  1  0
  7  6  1  0
 19  6  1  0
  8  7  1  0
 20  8  2  0
 11 10  1  0
 14 11  2  0
 13 12  2  0
 14 13  1  0
 15 14  1  0
 16 15  1  0
 17 15  2  0
 18 15  2  0
 21 20  1  0
 22 21  2  0
A    1
C3
A    2
C4
A    3
C9
A    4
C10
A    5
C5
A    6
C6
A    7
C7
A    8
C8
A    9
O
A   10
C11
A   11
C12
A   12
C15
A   13
C14
A   14
C13
A   15
S
A   16
N1
A   17
O1
A   18
O2
A   19
N
A   20
C18
A   21
C17
A   22
C16
M  END
>  <Id>  (152) 
4Z1J_4KC_A_302

>  <ChainId>  (152) 
A

>  <AsymId>  (152) 
C

>  <SeqNum>  (152) 
302

>  <Name>  (152) 
4-(3,4-dihydroisoquinolin-2(1H)-ylcarbonyl)benzenesulfonamide

>  <SystematicName>  (152) 
4-(3,4-dihydro-1H-isoquinolin-2-ylcarbonyl)benzenesulfonamide

>  <Synonyms>  (152) 


>  <Type>  (152) 
NON-POLYMER

>  <Formula>  (152) 
C16 H16 N2 O3 S

>  <ObservedFormula>  (152) 
C16 S N2 O3

>  <MolecularWeight>  (152) 
316.375

>  <ModifiedDate>  (152) 
2015-08-21

>  <Parent>  (152) 


>  <OneLetterCode>  (152) 


>  <SubcomponentList>  (152) 


>  <AmbiguousFlag>  (152) 
N

>  <InsertionCode>  (152) 


>  <InstanceId>  (152) 
4Z1J_4KC_A_302

>  <ChemCompId>  (152) 
4KC

>  <PdbId>  (152) 
4Z1J

>  <ResidueNumber>  (152) 
302

>  <InChI>  (152) 
InChI=1S/C16H16N2O3S/c17-22(20,21)15-7-5-13(6-8-15)16(19)18-10-9-12-3-1-2-4-14(12)11-18/h1-8H,9-11H2,(H2,17,20,21)

>  <InChIKey>  (152) 
FNPLXMFGUKXYIB-UHFFFAOYSA-N

>  <SMILES>  (152) 
c1ccc2c(c1)CCN(C2)C(=O)c3ccc(cc3)S(=O)(=O)N

>  <MissingHeavyAtoms>  (152) 
0

>  <Model>  (152) 
1

>  <AltIds>  (152) 


>  <pKI>  (152) 
8.11

>  <ChemblID>  (152) 
CHEMBL3613780

>  <standardized_canonical_smiles>  (152) 
NS(=O)(=O)c1ccc(C(=O)N2CCc3ccccc3C2)cc1

$$$$
4Z1K_4KB_A_302
     RDKit          3D

 24 26  0  0  0  0  0  0  0  0999 V2000
   18.5820   11.0000   11.6180 C   0  0  0  0  0  0  0  0  0  0  0  0
   18.5520    9.9280   12.5010 C   0  0  0  0  0  0  0  0  0  0  0  0
   16.4650    7.1920   13.1550 C   0  0  0  0  0  0  0  0  0  0  0  0
   16.2010    6.0650   14.0930 C   0  0  0  0  0  0  0  0  0  0  0  0
   17.9080    8.7100   11.9780 C   0  0  0  0  0  0  0  0  0  0  0  0
   18.7240    7.5970   13.9960 C   0  0  0  0  0  0  0  0  0  0  0  0
   19.0430    8.8860   14.6990 C   0  0  0  0  0  0  0  0  0  0  0  0
   19.1010   10.0250   13.7780 C   0  0  0  0  0  0  0  0  0  0  0  0
   15.4820    7.4680   12.4210 O   0  0  0  0  0  0  0  0  0  0  0  0
   17.0600    4.9700   14.1960 C   0  0  0  0  0  0  0  0  0  0  0  0
   16.7230    3.9070   15.0470 C   0  0  0  0  0  0  0  0  0  0  0  0
   15.0690    6.0840   14.8380 C   0  0  0  0  0  0  0  0  0  0  0  0
   14.7310    5.0230   15.6450 C   0  0  0  0  0  0  0  0  0  0  0  0
   15.5520    3.8920   15.7950 C   0  0  0  0  0  0  0  0  0  0  0  0
   15.0570    2.6030   16.8190 S   0  0  0  0  0  0  0  0  0  0  0  0
   15.6280    1.2720   16.2070 N   0  0  0  0  0  0  0  0  0  0  0  0
   13.6510    2.6570   16.7980 O   0  0  0  0  0  0  0  0  0  0  0  0
   15.6530    2.8410   18.0900 O   0  0  0  0  0  0  0  0  0  0  0  0
   17.6810    7.7500   13.0610 N   0  0  0  0  0  0  0  0  0  0  0  0
   19.7170   11.2030   14.2140 C   0  0  0  0  0  0  0  0  0  0  0  0
   19.7560   12.2880   13.3300 C   0  0  0  0  0  0  0  0  0  0  0  0
   20.3850   13.4260   13.8250 O   0  0  0  0  0  0  0  0  0  0  0  0
   19.1850   12.1760   12.0460 C   0  0  0  0  0  0  0  0  0  0  0  0
   19.2260   13.2630   11.1760 O   0  0  0  0  0  0  0  0  0  0  0  0
  2  1  2  0
 23  1  1  0
  5  2  1  0
  8  2  1  0
  4  3  1  0
  9  3  2  0
 19  3  1  0
 10  4  2  0
 12  4  1  0
 19  5  1  0
  7  6  1  0
 19  6  1  0
  8  7  1  0
 20  8  2  0
 11 10  1  0
 14 11  2  0
 13 12  2  0
 14 13  1  0
 15 14  1  0
 16 15  1  0
 17 15  2  0
 18 15  2  0
 21 20  1  0
 22 21  1  0
 23 21  2  0
 24 23  1  0
A    1
C3
A    2
C4
A    3
C9
A    4
C10
A    5
C5
A    6
C6
A    7
C7
A    8
C8
A    9
O
A   10
C11
A   11
C12
A   12
C15
A   13
C14
A   14
C13
A   15
S
A   16
N1
A   17
O1
A   18
O2
A   19
N
A   20
C18
A   21
C17
A   22
O17
A   23
C16
A   24
O16
M  END
>  <Id>  (153) 
4Z1K_4KB_A_302

>  <ChainId>  (153) 
A

>  <AsymId>  (153) 
C

>  <SeqNum>  (153) 
302

>  <Name>  (153) 
4-[(6,7-dihydroxy-3,4-dihydroisoquinolin-2(1H)-yl)carbonyl]benzenesulfonamide

>  <SystematicName>  (153) 
4-[[6,7-bis(oxidanyl)-3,4-dihydro-1H-isoquinolin-2-yl]carbonyl]benzenesulfonamide

>  <Synonyms>  (153) 


>  <Type>  (153) 
NON-POLYMER

>  <Formula>  (153) 
C16 H16 N2 O5 S

>  <ObservedFormula>  (153) 
C16 S N2 O5

>  <MolecularWeight>  (153) 
348.374

>  <ModifiedDate>  (153) 
2015-08-21

>  <Parent>  (153) 


>  <OneLetterCode>  (153) 


>  <SubcomponentList>  (153) 


>  <AmbiguousFlag>  (153) 
N

>  <InsertionCode>  (153) 


>  <InstanceId>  (153) 
4Z1K_4KB_A_302

>  <ChemCompId>  (153) 
4KB

>  <PdbId>  (153) 
4Z1K

>  <ResidueNumber>  (153) 
302

>  <InChI>  (153) 
InChI=1S/C16H16N2O5S/c17-24(22,23)13-3-1-10(2-4-13)16(21)18-6-5-11-7-14(19)15(20)8-12(11)9-18/h1-4,7-8,19-20H,5-6,9H2,(H2,17,22,23)

>  <InChIKey>  (153) 
IPKFBGPSWRSLEJ-UHFFFAOYSA-N

>  <SMILES>  (153) 
c1cc(ccc1C(=O)N2CCc3cc(c(cc3C2)O)O)S(=O)(=O)N

>  <MissingHeavyAtoms>  (153) 
0

>  <Model>  (153) 
1

>  <AltIds>  (153) 


>  <pKI>  (153) 
8.33

>  <ChemblID>  (153) 
CHEMBL3613777

>  <standardized_canonical_smiles>  (153) 
NS(=O)(=O)c1ccc(C(=O)N2CCc3cc(O)c(O)cc3C2)cc1

$$$$
4Z1N_4KD_A_302
     RDKit          3D

 22 24  0  0  0  0  0  0  0  0999 V2000
   18.5740   11.1000   11.7420 C   0  0  0  0  0  0  0  0  0  0  0  0
   18.5120    9.9230   12.5390 C   0  0  0  0  0  0  0  0  0  0  0  0
   16.3670    7.1990   13.0940 C   0  0  0  0  0  0  0  0  0  0  0  0
   16.1070    6.0690   14.0470 C   0  0  0  0  0  0  0  0  0  0  0  0
   17.8510    8.6960   11.9280 C   0  0  0  0  0  0  0  0  0  0  0  0
   18.6470    7.5870   13.9690 C   0  0  0  0  0  0  0  0  0  0  0  0
   18.9260    8.8080   14.7730 C   0  0  0  0  0  0  0  0  0  0  0  0
   19.0140    9.9700   13.8670 C   0  0  0  0  0  0  0  0  0  0  0  0
   15.3980    7.5540   12.3990 O   0  0  0  0  0  0  0  0  0  0  0  0
   16.9450    4.9320   14.0610 C   0  0  0  0  0  0  0  0  0  0  0  0
   16.6330    3.8940   14.9580 C   0  0  0  0  0  0  0  0  0  0  0  0
   15.0180    6.1240   14.8460 C   0  0  0  0  0  0  0  0  0  0  0  0
   14.7290    5.0480   15.6640 C   0  0  0  0  0  0  0  0  0  0  0  0
   15.5280    3.8900   15.7750 C   0  0  0  0  0  0  0  0  0  0  0  0
   15.0830    2.6420   16.8430 S   0  0  0  0  0  0  0  0  0  0  0  0
   15.6860    1.3190   16.1990 N   0  0  0  0  0  0  0  0  0  0  0  0
   13.6290    2.6370   16.7800 O   0  0  0  0  0  0  0  0  0  0  0  0
   15.6500    2.9070   18.1280 O   0  0  0  0  0  0  0  0  0  0  0  0
   17.5750    7.7600   13.0070 N   0  0  0  0  0  0  0  0  0  0  0  0
   19.6120   11.1400   14.3920 C   0  0  0  0  0  0  0  0  0  0  0  0
   19.6930   12.2770   13.5800 C   0  0  0  0  0  0  0  0  0  0  0  0
   19.1760   12.2650   12.2710 C   0  0  0  0  0  0  0  0  0  0  0  0
  2  1  2  0
 22  1  1  0
  5  2  1  0
  8  2  1  0
  4  3  1  0
  9  3  2  0
 19  3  1  0
 10  4  2  0
 12  4  1  0
 19  5  1  0
  7  6  1  0
 19  6  1  0
  8  7  1  0
 20  8  2  0
 11 10  1  0
 14 11  2  0
 13 12  2  0
 14 13  1  0
 15 14  1  0
 16 15  1  0
 17 15  2  0
 18 15  2  0
 21 20  1  0
 22 21  2  0
A    1
C3
A    2
C4
A    3
C9
A    4
C10
A    5
C5
A    6
C6
A    7
C7
A    8
C8
A    9
O
A   10
C11
A   11
C12
A   12
C15
A   13
C14
A   14
C13
A   15
S
A   16
N1
A   17
O1
A   18
O2
A   19
N
A   20
C18
A   21
C17
A   22
C16
M  END
>  <Id>  (154) 
4Z1N_4KD_A_302

>  <ChainId>  (154) 
A

>  <AsymId>  (154) 
C

>  <SeqNum>  (154) 
302

>  <Name>  (154) 
4-[(6,7-dimethoxy-3,4-dihydro-1H-isoquinolin-2-yl)carbonyl]benzenesulfonamide

>  <SystematicName>  (154) 
4-[(6,7-dimethoxy-3,4-dihydro-1H-isoquinolin-2-yl)carbonyl]benzenesulfonamide

>  <Synonyms>  (154) 


>  <Type>  (154) 
NON-POLYMER

>  <Formula>  (154) 
C18 H20 N2 O5 S

>  <ObservedFormula>  (154) 
C16 S N2 O3

>  <MolecularWeight>  (154) 
376.427

>  <ModifiedDate>  (154) 
2015-08-21

>  <Parent>  (154) 


>  <OneLetterCode>  (154) 


>  <SubcomponentList>  (154) 


>  <AmbiguousFlag>  (154) 
N

>  <InsertionCode>  (154) 


>  <InstanceId>  (154) 
4Z1N_4KD_A_302

>  <ChemCompId>  (154) 
4KD

>  <PdbId>  (154) 
4Z1N

>  <ResidueNumber>  (154) 
302

>  <InChI>  (154) 
InChI=1S/C18H20N2O5S/c1-24-16-9-13-7-8-20(11-14(13)10-17(16)25-2)18(21)12-3-5-15(6-4-12)26(19,22)23/h3-6,9-10H,7-8,11H2,1-2H3,(H2,19,22,23)

>  <InChIKey>  (154) 
BDKQEENATAIJAQ-UHFFFAOYSA-N

>  <SMILES>  (154) 
COc1cc2c(cc1OC)CN(CC2)C(=O)c3ccc(cc3)S(=O)(=O)N

>  <MissingHeavyAtoms>  (154) 
4

>  <Model>  (154) 
1

>  <AltIds>  (154) 


>  <pKI>  (154) 
8.23

>  <ChemblID>  (154) 
CHEMBL3613776

>  <standardized_canonical_smiles>  (154) 
COc1cc2c(cc1OC)CN(C(=O)c1ccc(S(N)(=O)=O)cc1)CC2

$$$$
5E28_BC5_A_302
     RDKit          3D

 17 18  0  0  0  0  0  0  0  0999 V2000
   -5.9570    0.8810   16.5850 S   0  0  0  0  0  0  0  0  0  0  0  0
   -5.4610   -0.4620   15.8480 N   0  0  0  0  0  0  0  0  0  0  0  0
   -7.3410    1.0690   16.2500 O   0  0  0  0  0  0  0  0  0  0  0  0
   -5.5850    0.7740   17.9680 O   0  0  0  0  0  0  0  0  0  0  0  0
   -5.0520    2.2350   15.8920 C   0  0  0  0  0  0  0  0  0  0  0  0
   -5.7160    3.4000   15.5260 C   0  0  0  0  0  0  0  0  0  0  0  0
   -5.0050    4.4630   14.9820 C   0  0  0  0  0  0  0  0  0  0  0  0
   -3.6300    4.3620   14.8040 C   0  0  0  0  0  0  0  0  0  0  0  0
   -2.9660    3.1970   15.1710 C   0  0  0  0  0  0  0  0  0  0  0  0
   -3.6770    2.1330   15.7150 C   0  0  0  0  0  0  0  0  0  0  0  0
   -2.8700    5.4990   14.2220 C   0  0  0  0  0  0  0  0  0  0  0  0
   -1.9610    5.2750   13.1940 C   0  0  0  0  0  0  0  0  0  0  0  0
   -1.2510    6.3380   12.6500 C   0  0  0  0  0  0  0  0  0  0  0  0
   -1.4480    7.6260   13.1340 C   0  0  0  0  0  0  0  0  0  0  0  0
   -2.3570    7.8510   14.1620 C   0  0  0  0  0  0  0  0  0  0  0  0
   -3.0680    6.7870   14.7060 C   0  0  0  0  0  0  0  0  0  0  0  0
   -0.7420    8.6820   12.5940 N   0  0  0  0  0  0  0  0  0  0  0  0
  2  1  1  0
  3  1  2  0
  4  1  2  0
  5  1  1  0
  6  5  2  0
 10  5  1  0
  7  6  1  0
  8  7  2  0
  9  8  1  0
 11  8  1  0
 10  9  2  0
 12 11  2  0
 16 11  1  0
 13 12  1  0
 14 13  2  0
 15 14  1  0
 17 14  1  0
 16 15  2  0
A    1
S1
A    2
N1
A    3
O2
A    4
O3
A    5
C4
A    6
C5
A    7
C6
A    8
C7
A    9
C8
A   10
C9
A   11
C10
A   12
C11
A   13
C12
A   14
C13
A   15
C14
A   16
C15
A   17
N2
M  END
>  <Id>  (155) 
5E28_BC5_A_302

>  <ChainId>  (155) 
A

>  <AsymId>  (155) 
C

>  <SeqNum>  (155) 
302

>  <Name>  (155) 
4'-aminobiphenyl-4-sulfonamide

>  <SystematicName>  (155) 
4-(4-aminophenyl)benzenesulfonamide

>  <Synonyms>  (155) 


>  <Type>  (155) 
NON-POLYMER

>  <Formula>  (155) 
C12 H12 N2 O2 S

>  <ObservedFormula>  (155) 
S C12 N2 O2

>  <MolecularWeight>  (155) 
248.301

>  <ModifiedDate>  (155) 
2016-01-15

>  <Parent>  (155) 


>  <OneLetterCode>  (155) 


>  <SubcomponentList>  (155) 


>  <AmbiguousFlag>  (155) 
N

>  <InsertionCode>  (155) 


>  <InstanceId>  (155) 
5E28_BC5_A_302

>  <ChemCompId>  (155) 
BC5

>  <PdbId>  (155) 
5E28

>  <ResidueNumber>  (155) 
302

>  <InChI>  (155) 
InChI=1S/C12H12N2O2S/c13-11-5-1-9(2-6-11)10-3-7-12(8-4-10)17(14,15)16/h1-8H,13H2,(H2,14,15,16)

>  <InChIKey>  (155) 
OFWFFDCOBHXZME-UHFFFAOYSA-N

>  <SMILES>  (155) 
c1cc(ccc1c2ccc(cc2)S(=O)(=O)N)N

>  <MissingHeavyAtoms>  (155) 
0

>  <Model>  (155) 
1

>  <AltIds>  (155) 


>  <pKI>  (155) 
7.98

>  <ChemblID>  (155) 
CHEMBL3632831

>  <standardized_canonical_smiles>  (155) 
Nc1ccc(-c2ccc(S(N)(=O)=O)cc2)cc1

$$$$
5E2R_520_A_302
     RDKit          3D

 25 27  0  0  0  0  0  0  0  0999 V2000
   -0.2810   10.0190   14.3880 C   0  0  0  0  0  0  0  0  0  0  0  0
    0.1650   11.0710   15.1810 C   0  0  0  0  0  0  0  0  0  0  0  0
   -0.2070   12.3770   14.8790 C   0  0  0  0  0  0  0  0  0  0  0  0
    0.2270   13.4100   15.6580 N   0  0  0  0  0  0  0  0  0  0  0  0
   -1.0270   12.6290   13.7840 C   0  0  0  0  0  0  0  0  0  0  0  0
   -1.4730   11.5780   12.9920 C   0  0  0  0  0  0  0  0  0  0  0  0
   -1.1000   10.2720   13.2930 C   0  0  0  0  0  0  0  0  0  0  0  0
   -1.5740    9.1470   12.4330 C   0  0  0  0  0  0  0  0  0  0  0  0
   -1.5040    9.2280   11.2150 O   0  0  0  0  0  0  0  0  0  0  0  0
   -2.1490    7.9240   13.0720 C   0  0  0  0  0  0  0  0  0  0  0  0
   -1.9030    6.6720   12.5200 C   0  0  0  0  0  0  0  0  0  0  0  0
   -2.4880    5.5380   13.0740 C   0  0  0  0  0  0  0  0  0  0  0  0
   -2.9730    8.0440   14.1840 C   0  0  0  0  0  0  0  0  0  0  0  0
   -3.5580    6.9110   14.7380 C   0  0  0  0  0  0  0  0  0  0  0  0
   -3.3190    5.6590   14.1810 C   0  0  0  0  0  0  0  0  0  0  0  0
   -3.9370    4.5380   14.7240 C   0  0  0  0  0  0  0  0  0  0  0  0
   -3.1900    3.4070   15.0340 C   0  0  0  0  0  0  0  0  0  0  0  0
   -3.8050    2.3130   15.6340 C   0  0  0  0  0  0  0  0  0  0  0  0
   -5.1640    2.3480   15.9230 C   0  0  0  0  0  0  0  0  0  0  0  0
   -5.4330    1.0420   18.0980 O   0  0  0  0  0  0  0  0  0  0  0  0
   -7.3400    1.1000   16.5570 O   0  0  0  0  0  0  0  0  0  0  0  0
   -5.9140    3.4750   15.6040 C   0  0  0  0  0  0  0  0  0  0  0  0
   -5.2990    4.5690   15.0040 C   0  0  0  0  0  0  0  0  0  0  0  0
   -5.9220    0.9910   16.7490 S   0  0  0  0  0  0  0  0  0  0  0  0
   -5.4030   -0.3420   16.0540 N   0  0  0  0  0  0  0  0  0  0  0  0
  2  1  2  0
  7  1  1  0
  3  2  1  0
  4  3  1  0
  5  3  2  0
  6  5  1  0
  7  6  2  0
  8  7  1  0
  9  8  2  0
 10  8  1  0
 11 10  2  0
 13 10  1  0
 12 11  1  0
 15 12  2  0
 14 13  2  0
 15 14  1  0
 16 15  1  0
 17 16  2  0
 23 16  1  0
 18 17  1  0
 19 18  2  0
 22 19  1  0
 24 19  1  0
 24 20  2  0
 24 21  2  0
 23 22  2  0
 25 24  1  0
A    1
C3
A    2
C2
A    3
C1
A    4
N1
A    5
C6
A    6
C5
A    7
C4
A    8
C7
A    9
O1
A   10
C16
A   11
C17
A   12
C18
A   13
C15
A   14
C14
A   15
C19
A   16
C10
A   17
C9
A   18
C8
A   19
C13
A   20
O3
A   21
O2
A   22
C12
A   23
C11
A   24
S2
A   25
N2
M  END
>  <Id>  (156) 
5E2R_520_A_302

>  <ChainId>  (156) 
A

>  <AsymId>  (156) 
C

>  <SeqNum>  (156) 
302

>  <Name>  (156) 
4'-(4-aminobenzoyl)biphenyl-4-sulfonamide

>  <SystematicName>  (156) 
4-[4-(4-aminophenyl)carbonylphenyl]benzenesulfonamide

>  <Synonyms>  (156) 


>  <Type>  (156) 
NON-POLYMER

>  <Formula>  (156) 
C19 H16 N2 O3 S

>  <ObservedFormula>  (156) 
C19 S N2 O3

>  <MolecularWeight>  (156) 
352.407

>  <ModifiedDate>  (156) 
2015-10-30

>  <Parent>  (156) 


>  <OneLetterCode>  (156) 


>  <SubcomponentList>  (156) 


>  <AmbiguousFlag>  (156) 
N

>  <InsertionCode>  (156) 


>  <InstanceId>  (156) 
5E2R_520_A_302

>  <ChemCompId>  (156) 
520

>  <PdbId>  (156) 
5E2R

>  <ResidueNumber>  (156) 
302

>  <InChI>  (156) 
InChI=1S/C19H16N2O3S/c20-17-9-5-16(6-10-17)19(22)15-3-1-13(2-4-15)14-7-11-18(12-8-14)25(21,23)24/h1-12H,20H2,(H2,21,23,24)

>  <InChIKey>  (156) 
XKAQFZLONLOUSN-UHFFFAOYSA-N

>  <SMILES>  (156) 
c1cc(ccc1c2ccc(cc2)S(=O)(=O)N)C(=O)c3ccc(cc3)N

>  <MissingHeavyAtoms>  (156) 
0

>  <Model>  (156) 
1

>  <AltIds>  (156) 


>  <pKI>  (156) 
7.06

>  <ChemblID>  (156) 
CHEMBL3632844

>  <standardized_canonical_smiles>  (156) 
Nc1ccc(C(=O)c2ccc(-c3ccc(S(N)(=O)=O)cc3)cc2)cc1

$$$$
4RH2_FC9_A_302
     RDKit          3D

 45 50  0  0  0  0  0  0  0  0999 V2000
   -5.5770    4.2240   14.7880 C   0  0  0  0  0  0  0  0  0  0  0  0
   -4.2280    4.3110   14.4050 C   0  0  0  0  0  0  0  0  0  0  0  0
   -3.4560    3.2260   14.8260 C   0  0  0  0  0  0  0  0  0  0  0  0
   -3.9720    2.1600   15.5750 C   0  0  0  0  0  0  0  0  0  0  0  0
   -6.1280    3.1710   15.5370 C   0  0  0  0  0  0  0  0  0  0  0  0
   -5.3250    2.0970   15.9600 C   0  0  0  0  0  0  0  0  0  0  0  0
   -5.9390    0.8430   16.8310 S   0  0  0  0  0  0  0  0  0  0  0  0
   -7.3700    0.9560   16.7360 O   0  0  0  0  0  0  0  0  0  0  0  0
   -5.4090    1.0120   18.1540 O   0  0  0  0  0  0  0  0  0  0  0  0
   -5.4570   -0.5420   16.1840 N   0  0  0  0  0  0  0  0  0  0  0  0
   -3.7310    5.3350   13.6560 N   0  0  0  0  0  0  0  0  0  0  0  0
   -4.6010    6.1670   12.9690 N   0  0  0  0  0  0  0  0  0  0  0  0
   -3.7280    7.0380   12.3010 N   0  0  0  0  0  0  0  0  0  0  0  0
   -2.4460    6.7110   12.5790 C   0  0  0  0  0  0  0  0  0  0  0  0
   -2.4420    5.6090   13.4430 C   0  0  0  0  0  0  0  0  0  0  0  0
   -1.2570    7.4540   12.0090 C   0  0  0  0  0  0  0  0  0  0  0  0
   -1.4410    8.8820   12.1950 N   0  0  0  0  0  0  0  0  0  0  0  0
   -1.0560    9.4860   13.3180 C   0  0  0  0  0  0  0  0  0  0  0  0
   -0.5070    8.5960   14.4870 S   0  0  0  0  0  0  0  0  0  0  0  0
   -1.1420   10.8160   13.4200 N   0  0  0  0  0  0  0  0  0  0  0  0
   -0.4040   11.5850   14.2690 C   0  0  0  0  0  0  0  0  0  0  0  0
   -0.9670   12.7620   14.7500 C   0  0  0  0  0  0  0  0  0  0  0  0
   -0.2490   13.5800   15.6190 C   0  0  0  0  0  0  0  0  0  0  0  0
    1.0440   13.2350   16.0190 C   0  0  0  0  0  0  0  0  0  0  0  0
    1.6210   12.0620   15.5370 C   0  0  0  0  0  0  0  0  0  0  0  0
    0.8980   11.2450   14.6640 C   0  0  0  0  0  0  0  0  0  0  0  0
    1.7720   14.1610   16.9410 C   0  0  0  0  0  0  0  0  0  0  0  0
    2.2890   15.4680   16.4290 C   0  0  0  0  0  0  0  0  0  0  0  0
    2.9660   16.3400   17.2940 C   0  0  0  0  0  0  0  0  0  0  0  0
    3.1780   16.0330   18.6190 O   0  0  0  0  0  0  0  0  0  0  0  0
    2.7470   14.8620   19.1940 C   0  0  0  0  0  0  0  0  0  0  0  0
    2.0130   13.8530   18.3790 C   0  0  0  0  0  0  0  0  0  0  0  0
    1.5860   12.6760   18.9860 C   0  0  0  0  0  0  0  0  0  0  0  0
    1.8480   12.4650   20.3400 C   0  0  0  0  0  0  0  0  0  0  0  0
    2.5380   13.4080   21.1070 C   0  0  0  0  0  0  0  0  0  0  0  0
    2.9850   14.6030   20.5400 C   0  0  0  0  0  0  0  0  0  0  0  0
    2.7500   13.1750   22.3180 O   0  0  0  0  0  0  0  0  0  0  0  0
    3.4480   17.5550   16.8060 C   0  0  0  0  0  0  0  0  0  0  0  0
    3.2560   17.9050   15.4690 C   0  0  0  0  0  0  0  0  0  0  0  0
    2.5820   17.0390   14.6090 C   0  0  0  0  0  0  0  0  0  0  0  0
    2.1010   15.8240   15.0900 C   0  0  0  0  0  0  0  0  0  0  0  0
    3.7290   19.0940   15.0000 O   0  0  0  0  0  0  0  0  0  0  0  0
    3.0110   11.6510   15.9350 C   0  0  0  0  0  0  0  0  0  0  0  0
    3.9780   12.3850   15.6300 O   0  0  0  0  0  0  0  0  0  0  0  0
    3.1720   10.5790   16.5590 O   0  0  0  0  0  0  0  0  0  0  0  0
  2  1  2  0
  5  1  1  0
  3  2  1  0
 11  2  1  0
  4  3  2  0
  6  4  1  0
  6  5  2  0
  7  6  1  0
  8  7  2  0
  9  7  2  0
 10  7  1  0
 12 11  1  0
 15 11  1  0
 13 12  2  0
 14 13  1  0
 15 14  2  0
 16 14  1  0
 17 16  1  0
 18 17  1  0
 19 18  2  0
 20 18  1  0
 21 20  1  0
 22 21  2  0
 26 21  1  0
 23 22  1  0
 24 23  2  0
 25 24  1  0
 27 24  1  0
 26 25  2  0
 43 25  1  0
 28 27  2  0
 32 27  1  0
 29 28  1  0
 41 28  1  0
 30 29  1  0
 38 29  2  0
 31 30  1  0
 32 31  2  0
 36 31  1  0
 33 32  1  0
 34 33  2  0
 35 34  1  0
 36 35  2  0
 37 35  1  0
 39 38  1  0
 40 39  1  0
 42 39  2  0
 41 40  2  0
 44 43  2  0
 45 43  1  0
A    1
C9
A    2
C10
A    3
C11
A    4
C12
A    5
C8
A    6
C7
A    7
S
A    8
O1
A    9
O2
A   10
N3
A   11
N1
A   12
N2
A   13
N4
A   14
C4
A   15
C5
A   16
C1
A   17
N5
A   18
C6
A   19
S7
A   20
N8
A   21
C13
A   22
C14
A   23
C15
A   24
C16
A   25
C17
A   26
C18
A   27
C3
A   28
C19
A   29
C20
A   30
O21
A   31
C22
A   32
C23
A   33
C24
A   34
C25
A   35
C26
A   36
C27
A   37
O3
A   38
C21
A   39
C28
A   40
C29
A   41
C30
A   42
O4
A   43
C2
A   44
O5
A   45
O6
M  END
>  <Id>  (157) 
4RH2_FC9_A_302

>  <ChainId>  (157) 
A

>  <AsymId>  (157) 
C

>  <SeqNum>  (157) 
302

>  <Name>  (157) 
2-(6-hydroxy-3-oxo-3H-xanthen-9-yl)-5-[({[1-(4-sulfamoylphenyl)-1H-1,2,3-triazol-4-yl]methyl}carbamothioyl)amino]benzoic acid

>  <SystematicName>  (157) 
2-(3-oxidanyl-6-oxidanylidene-xanthen-9-yl)-5-[[1-(4-sulfamoylphenyl)-1,2,3-triazol-4-yl]methylcarbamothioylamino]benzoic acid

>  <Synonyms>  (157) 


>  <Type>  (157) 
NON-POLYMER

>  <Formula>  (157) 
C30 H22 N6 O7 S2

>  <ObservedFormula>  (157) 
C30 S2 N6 O7

>  <MolecularWeight>  (157) 
642.662

>  <ModifiedDate>  (157) 
2015-11-06

>  <Parent>  (157) 


>  <OneLetterCode>  (157) 


>  <SubcomponentList>  (157) 


>  <AmbiguousFlag>  (157) 
N

>  <InsertionCode>  (157) 


>  <InstanceId>  (157) 
4RH2_FC9_A_302

>  <ChemCompId>  (157) 
FC9

>  <PdbId>  (157) 
4RH2

>  <ResidueNumber>  (157) 
302

>  <InChI>  (157) 
InChI=1S/C30H22N6O7S2/c31-45(41,42)21-6-2-18(3-7-21)36-15-17(34-35-36)14-32-30(44)33-16-1-8-22(25(11-16)29(39)40)28-23-9-4-19(37)12-26(23)43-27-13-20(38)5-10-24(27)28/h1-13,15,37H,14H2,(H,39,40)(H2,31,41,42)(H2,32,33,44)

>  <InChIKey>  (157) 
YKWZALQMWYUDGJ-UHFFFAOYSA-N

>  <SMILES>  (157) 
c1cc(ccc1n2cc(nn2)CNC(=S)Nc3ccc(c(c3)C(=O)O)C4=C5C=CC(=O)C=C5Oc6c4ccc(c6)O)S(=O)(=O)N

>  <MissingHeavyAtoms>  (157) 
0

>  <Model>  (157) 
1

>  <AltIds>  (157) 


>  <pKI>  (157) 
7.44

>  <ChemblID>  (157) 
CHEMBL3741975

>  <standardized_canonical_smiles>  (157) 
NS(=O)(=O)c1ccc(-n2cc(CNC(=S)Nc3ccc(-c4c5ccc(=O)cc-5oc5cc(O)ccc45)c(C(=O)O)c3)nn2)cc1

$$$$
5EIJ_5OT_A_302
     RDKit          3D

 21 22  0  0  0  0  0  0  0  0999 V2000
   -0.9370    8.2750   12.7750 C   0  0  0  0  0  0  0  0  0  0  0  0
   -0.0020    8.9050   13.5870 C   0  0  0  0  0  0  0  0  0  0  0  0
    1.8090    9.5980   12.7500 I   0  0  0  0  0  0  0  0  0  0  0  0
   -0.2330    9.0990   14.9400 C   0  0  0  0  0  0  0  0  0  0  0  0
   -1.4120    8.6470   15.4920 C   0  0  0  0  0  0  0  0  0  0  0  0
   -2.3400    8.0070   14.6840 C   0  0  0  0  0  0  0  0  0  0  0  0
   -2.1190    7.8220   13.3270 C   0  0  0  0  0  0  0  0  0  0  0  0
   -3.1310    7.1650   12.5150 N   0  0  0  0  0  0  0  0  0  0  0  0
   -4.2140    6.5300   13.2520 C   0  0  0  0  0  0  0  0  0  0  0  0
   -5.6560    6.1260   12.2250 S   0  0  0  0  0  0  0  0  0  0  0  0
   -3.6000    5.3520   13.8170 N   0  0  0  0  0  0  0  0  0  0  0  0
   -4.2720    4.3350   14.5790 C   0  0  0  0  0  0  0  0  0  0  0  0
   -5.5970    4.4060   14.9700 C   0  0  0  0  0  0  0  0  0  0  0  0
   -6.1270    3.3620   15.7090 C   0  0  0  0  0  0  0  0  0  0  0  0
   -5.3150    2.2880   16.0410 C   0  0  0  0  0  0  0  0  0  0  0  0
   -5.9410    0.8850   16.9920 S   0  0  0  0  0  0  0  0  0  0  0  0
   -5.3540    1.0290   18.5000 O   0  0  0  0  0  0  0  0  0  0  0  0
   -7.5590    0.9480   16.8950 O   0  0  0  0  0  0  0  0  0  0  0  0
   -5.3380   -0.5290   16.2500 N   0  0  0  0  0  0  0  0  0  0  0  0
   -4.0030    2.2330   15.6500 C   0  0  0  0  0  0  0  0  0  0  0  0
   -3.4860    3.2620   14.9100 C   0  0  0  0  0  0  0  0  0  0  0  0
  2  1  2  0
  7  1  1  0
  3  2  1  0
  4  2  1  0
  5  4  2  0
  6  5  1  0
  7  6  2  0
  8  7  1  0
  9  8  1  0
 10  9  2  0
 11  9  1  0
 12 11  1  0
 13 12  2  0
 21 12  1  0
 14 13  1  0
 15 14  2  0
 16 15  1  0
 20 15  1  0
 17 16  2  0
 18 16  2  0
 19 16  1  0
 21 20  2  0
A    1
CAP
A    2
CAO
A    3
IAQ
A    4
CAN
A    5
CAM
A    6
CAL
A    7
CAK
A    8
NAI
A    9
CAH
A   10
SAJ
A   11
NAG
A   12
CAD
A   13
CAC
A   14
CAB
A   15
CAA
A   16
SAR
A   17
OAS
A   18
OAT
A   19
NAU
A   20
CAF
A   21
CAE
M  END
>  <Id>  (158) 
5EIJ_5OT_A_302

>  <ChainId>  (158) 
A

>  <AsymId>  (158) 
C

>  <SeqNum>  (158) 
302

>  <Name>  (158) 
1-(3-iodanylphenyl)-3-(4-sulfamoylphenyl)thiourea

>  <SystematicName>  (158) 
1-(3-iodanylphenyl)-3-(4-sulfamoylphenyl)thiourea

>  <Synonyms>  (158) 


>  <Type>  (158) 
NON-POLYMER

>  <Formula>  (158) 
C13 H12 I N3 O2 S2

>  <ObservedFormula>  (158) 
C13 S2 I N3 O2

>  <MolecularWeight>  (158) 
433.288

>  <ModifiedDate>  (158) 
2016-11-04

>  <Parent>  (158) 


>  <OneLetterCode>  (158) 


>  <SubcomponentList>  (158) 


>  <AmbiguousFlag>  (158) 
N

>  <InsertionCode>  (158) 


>  <InstanceId>  (158) 
5EIJ_5OT_A_302

>  <ChemCompId>  (158) 
5OT

>  <PdbId>  (158) 
5EIJ

>  <ResidueNumber>  (158) 
302

>  <InChI>  (158) 
InChI=1S/C13H12IN3O2S2/c14-9-2-1-3-11(8-9)17-13(20)16-10-4-6-12(7-5-10)21(15,18)19/h1-8H,(H2,15,18,19)(H2,16,17,20)

>  <InChIKey>  (158) 
JXJJQOHWSVYHLS-UHFFFAOYSA-N

>  <SMILES>  (158) 
c1cc(cc(c1)I)NC(=S)Nc2ccc(cc2)S(=O)(=O)N

>  <MissingHeavyAtoms>  (158) 
0

>  <Model>  (158) 
1

>  <AltIds>  (158) 


>  <pKI>  (158) 
5.99

>  <ChemblID>  (158) 
CHEMBL3759678

>  <standardized_canonical_smiles>  (158) 
NS(=O)(=O)c1ccc(NC(=S)Nc2cccc(I)c2)cc1

$$$$
5SZ0_72D_A_303
     RDKit          3D

 16 17  0  0  0  0  0  0  0  0999 V2000
    0.2920    2.5890   84.9250 C   0  0  0  0  0  0  0  0  0  0  0  0
   -0.4470    1.4590   85.6130 C   0  0  0  0  0  0  0  0  0  0  0  0
   -1.7550    1.4770   85.6650 C   0  0  0  0  0  0  0  0  0  0  0  0
   -2.5370    0.0740   86.5000 S   0  0  0  0  0  0  0  0  0  0  0  0
   -2.1620    0.1520   87.9160 O   0  0  0  0  0  0  0  0  0  0  0  0
   -4.0040    0.1880   86.4900 O   0  0  0  0  0  0  0  0  0  0  0  0
   -2.0440   -1.4000   85.8000 N   0  0  0  0  0  0  0  0  0  0  0  0
   -2.5560    2.6360   85.0700 C   0  0  0  0  0  0  0  0  0  0  0  0
   -1.9120    3.6330   84.4840 C   0  0  0  0  0  0  0  0  0  0  0  0
   -0.3820    3.5840   84.4020 C   0  0  0  0  0  0  0  0  0  0  0  0
    0.4570    4.6880   83.7780 C   0  0  0  0  0  0  0  0  0  0  0  0
    1.1880    4.4860   82.7050 C   0  0  0  0  0  0  0  0  0  0  0  0
    2.0240    5.6290   82.1420 C   0  0  0  0  0  0  0  0  0  0  0  0
    2.0240    6.8020   82.7420 C   0  0  0  0  0  0  0  0  0  0  0  0
    1.1900    7.0210   83.9990 C   0  0  0  0  0  0  0  0  0  0  0  0
    0.4670    6.0350   84.4820 C   0  0  0  0  0  0  0  0  0  0  0  0
  2  1  2  0
 10  1  1  0
  3  2  1  0
  4  3  1  0
  8  3  2  0
  5  4  2  0
  6  4  2  0
  7  4  1  0
  9  8  1  0
 10  9  2  0
 11 10  1  0
 12 11  2  0
 16 11  1  0
 13 12  1  0
 14 13  2  0
 15 14  1  0
 16 15  2  0
A    1
CAH
A    2
CAI
A    3
CAJ
A    4
SAM
A    5
OAN
A    6
OAO
A    7
NAP
A    8
CAK
A    9
CAL
A   10
CAG
A   11
CAA
A   12
CAB
A   13
CAC
A   14
CAD
A   15
CAE
A   16
CAF
M  END
>  <Id>  (159) 
5SZ0_72D_A_303

>  <ChainId>  (159) 
A

>  <AsymId>  (159) 
D

>  <SeqNum>  (159) 
303

>  <Name>  (159) 
4-(phenyl)-benzenesulfonamide

>  <SystematicName>  (159) 
4-phenylbenzenesulfonamide

>  <Synonyms>  (159) 
[1,1'-biphenyl]-4-sulfonamide

>  <Type>  (159) 
NON-POLYMER

>  <Formula>  (159) 
C12 H11 N O2 S

>  <ObservedFormula>  (159) 
C12 S N O2

>  <MolecularWeight>  (159) 
233.286

>  <ModifiedDate>  (159) 
2016-12-16

>  <Parent>  (159) 


>  <OneLetterCode>  (159) 


>  <SubcomponentList>  (159) 


>  <AmbiguousFlag>  (159) 
N

>  <InsertionCode>  (159) 


>  <InstanceId>  (159) 
5SZ0_72D_A_303

>  <ChemCompId>  (159) 
72D

>  <PdbId>  (159) 
5SZ0

>  <ResidueNumber>  (159) 
303

>  <InChI>  (159) 
InChI=1S/C12H11NO2S/c13-16(14,15)12-8-6-11(7-9-12)10-4-2-1-3-5-10/h1-9H,(H2,13,14,15)

>  <InChIKey>  (159) 
JVFCCRJSBNUDDU-UHFFFAOYSA-N

>  <SMILES>  (159) 
c1ccc(cc1)c2ccc(cc2)S(=O)(=O)N

>  <MissingHeavyAtoms>  (159) 
0

>  <Model>  (159) 
1

>  <AltIds>  (159) 


>  <pKI>  (159) 
9.1

>  <ChemblID>  (159) 
CHEMBL3764182

>  <standardized_canonical_smiles>  (159) 
NS(=O)(=O)c1ccc(-c2ccccc2)cc1

$$$$
5SZ4_72D_A_304
     RDKit          3D

 16 17  0  0  0  0  0  0  0  0999 V2000
   17.9890    5.7380   15.5320 C   0  0  0  0  0  0  0  0  0  0  0  0
   17.3580    4.4940   16.1160 C   0  0  0  0  0  0  0  0  0  0  0  0
   16.0480    4.4340   16.2530 C   0  0  0  0  0  0  0  0  0  0  0  0
   15.3670    2.9370   16.9760 S   0  0  0  0  0  0  0  0  0  0  0  0
   15.7530    2.9280   18.3780 O   0  0  0  0  0  0  0  0  0  0  0  0
   13.8870    2.9640   16.8970 O   0  0  0  0  0  0  0  0  0  0  0  0
   16.0190    1.5840   16.2080 N   0  0  0  0  0  0  0  0  0  0  0  0
   15.1360    5.5830   15.8470 C   0  0  0  0  0  0  0  0  0  0  0  0
   15.7020    6.6560   15.3390 C   0  0  0  0  0  0  0  0  0  0  0  0
   17.2070    6.7220   15.1640 C   0  0  0  0  0  0  0  0  0  0  0  0
   17.8340    7.9800   14.6110 C   0  0  0  0  0  0  0  0  0  0  0  0
   18.9440    7.9420   13.9100 C   0  0  0  0  0  0  0  0  0  0  0  0
   19.5310    9.2530   13.4000 C   0  0  0  0  0  0  0  0  0  0  0  0
   18.9350   10.3940   13.6700 C   0  0  0  0  0  0  0  0  0  0  0  0
   17.6560   10.4230   14.4920 C   0  0  0  0  0  0  0  0  0  0  0  0
   17.1440    9.2950   14.9340 C   0  0  0  0  0  0  0  0  0  0  0  0
  2  1  2  0
 10  1  1  0
  3  2  1  0
  4  3  1  0
  8  3  2  0
  5  4  2  0
  6  4  2  0
  7  4  1  0
  9  8  1  0
 10  9  2  0
 11 10  1  0
 12 11  2  0
 16 11  1  0
 13 12  1  0
 14 13  2  0
 15 14  1  0
 16 15  2  0
A    1
CAH
A    2
CAI
A    3
CAJ
A    4
SAM
A    5
OAN
A    6
OAO
A    7
NAP
A    8
CAK
A    9
CAL
A   10
CAG
A   11
CAA
A   12
CAB
A   13
CAC
A   14
CAD
A   15
CAE
A   16
CAF
M  END
>  <Id>  (160) 
5SZ4_72D_A_304

>  <ChainId>  (160) 
A

>  <AsymId>  (160) 
E

>  <SeqNum>  (160) 
304

>  <Name>  (160) 
4-(phenyl)-benzenesulfonamide

>  <SystematicName>  (160) 
4-phenylbenzenesulfonamide

>  <Synonyms>  (160) 
[1,1'-biphenyl]-4-sulfonamide

>  <Type>  (160) 
NON-POLYMER

>  <Formula>  (160) 
C12 H11 N O2 S

>  <ObservedFormula>  (160) 
C12 S N O2

>  <MolecularWeight>  (160) 
233.286

>  <ModifiedDate>  (160) 
2016-12-16

>  <Parent>  (160) 


>  <OneLetterCode>  (160) 


>  <SubcomponentList>  (160) 


>  <AmbiguousFlag>  (160) 
N

>  <InsertionCode>  (160) 


>  <InstanceId>  (160) 
5SZ4_72D_A_304

>  <ChemCompId>  (160) 
72D

>  <PdbId>  (160) 
5SZ4

>  <ResidueNumber>  (160) 
304

>  <InChI>  (160) 
InChI=1S/C12H11NO2S/c13-16(14,15)12-8-6-11(7-9-12)10-4-2-1-3-5-10/h1-9H,(H2,13,14,15)

>  <InChIKey>  (160) 
JVFCCRJSBNUDDU-UHFFFAOYSA-N

>  <SMILES>  (160) 
c1ccc(cc1)c2ccc(cc2)S(=O)(=O)N

>  <MissingHeavyAtoms>  (160) 
0

>  <Model>  (160) 
1

>  <AltIds>  (160) 


>  <pKI>  (160) 
9.1

>  <ChemblID>  (160) 
CHEMBL3764182

>  <standardized_canonical_smiles>  (160) 
NS(=O)(=O)c1ccc(-c2ccccc2)cc1

$$$$
5SZ5_72E_A_303
     RDKit          3D

 17 18  0  0  0  0  0  0  0  0999 V2000
   16.3020    7.7770   15.3830 C   0  0  0  0  0  0  0  0  0  0  0  0
   17.5200    7.4000   14.5340 C   0  0  0  0  0  0  0  0  0  0  0  0
   18.2180    8.4860   14.0170 C   0  0  0  0  0  0  0  0  0  0  0  0
   19.3430    8.2960   13.2350 C   0  0  0  0  0  0  0  0  0  0  0  0
   19.7850    7.0130   12.9740 C   0  0  0  0  0  0  0  0  0  0  0  0
   19.0930    5.9220   13.4830 C   0  0  0  0  0  0  0  0  0  0  0  0
   17.9530    6.1000   14.2490 C   0  0  0  0  0  0  0  0  0  0  0  0
   17.2630    4.8680   14.8420 C   0  0  0  0  0  0  0  0  0  0  0  0
   15.8870    4.7480   14.9410 C   0  0  0  0  0  0  0  0  0  0  0  0
   15.3150    3.6390   15.5380 C   0  0  0  0  0  0  0  0  0  0  0  0
   16.1460    2.6340   16.0290 C   0  0  0  0  0  0  0  0  0  0  0  0
   15.4690    1.1950   16.8450 S   0  0  0  0  0  0  0  0  0  0  0  0
   16.0030    1.3020   18.2740 O   0  0  0  0  0  0  0  0  0  0  0  0
   13.9180    1.2890   16.6460 O   0  0  0  0  0  0  0  0  0  0  0  0
   16.0960   -0.1370   16.1120 N   0  0  0  0  0  0  0  0  0  0  0  0
   17.5290    2.7450   15.9140 C   0  0  0  0  0  0  0  0  0  0  0  0
   18.0820    3.8690   15.3300 C   0  0  0  0  0  0  0  0  0  0  0  0
  2  1  1  0
  3  2  2  0
  7  2  1  0
  4  3  1  0
  5  4  2  0
  6  5  1  0
  7  6  2  0
  8  7  1  0
  9  8  2  0
 17  8  1  0
 10  9  1  0
 11 10  2  0
 12 11  1  0
 16 11  1  0
 13 12  2  0
 14 12  2  0
 15 12  1  0
 17 16  2  0
A    1
CAQ
A    2
CAF
A    3
CAE
A    4
CAD
A    5
CAC
A    6
CAB
A    7
CAA
A    8
CAG
A    9
CAH
A   10
CAI
A   11
CAJ
A   12
SAM
A   13
OAN
A   14
OAO
A   15
NAP
A   16
CAK
A   17
CAL
M  END
>  <Id>  (161) 
5SZ5_72E_A_303

>  <ChainId>  (161) 
A

>  <AsymId>  (161) 
D

>  <SeqNum>  (161) 
303

>  <Name>  (161) 
4-(2-methylphenyl)-benzenesulfonamide

>  <SystematicName>  (161) 
4-(2-methylphenyl)benzenesulfonamide

>  <Synonyms>  (161) 
2'-methyl[1,1'-biphenyl]-4-sulfonamide

>  <Type>  (161) 
NON-POLYMER

>  <Formula>  (161) 
C13 H13 N O2 S

>  <ObservedFormula>  (161) 
C13 S N O2

>  <MolecularWeight>  (161) 
247.313

>  <ModifiedDate>  (161) 
2016-12-16

>  <Parent>  (161) 


>  <OneLetterCode>  (161) 


>  <SubcomponentList>  (161) 


>  <AmbiguousFlag>  (161) 
N

>  <InsertionCode>  (161) 


>  <InstanceId>  (161) 
5SZ5_72E_A_303

>  <ChemCompId>  (161) 
72E

>  <PdbId>  (161) 
5SZ5

>  <ResidueNumber>  (161) 
303

>  <InChI>  (161) 
InChI=1S/C13H13NO2S/c1-10-4-2-3-5-13(10)11-6-8-12(9-7-11)17(14,15)16/h2-9H,1H3,(H2,14,15,16)

>  <InChIKey>  (161) 
YPAQIAZVIPIPPM-UHFFFAOYSA-N

>  <SMILES>  (161) 
Cc1ccccc1c2ccc(cc2)S(=O)(=O)N

>  <MissingHeavyAtoms>  (161) 
0

>  <Model>  (161) 
1

>  <AltIds>  (161) 


>  <pKI>  (161) 
8.92

>  <ChemblID>  (161) 
CHEMBL3764580

>  <standardized_canonical_smiles>  (161) 
Cc1ccccc1-c1ccc(S(N)(=O)=O)cc1

$$$$
5SZ1_72E_A_307
     RDKit          3D

 17 18  0  0  0  0  0  0  0  0999 V2000
    1.8560    5.5330   81.9210 C   0  0  0  0  0  0  0  0  0  0  0  0
    1.6120    6.8270   82.6940 C   0  0  0  0  0  0  0  0  0  0  0  0
    2.3280    7.9540   82.3120 C   0  0  0  0  0  0  0  0  0  0  0  0
    2.1530    9.1600   82.9680 C   0  0  0  0  0  0  0  0  0  0  0  0
    1.2610    9.2510   84.0200 C   0  0  0  0  0  0  0  0  0  0  0  0
    0.5470    8.1250   84.4020 C   0  0  0  0  0  0  0  0  0  0  0  0
    0.6820    6.9260   83.7250 C   0  0  0  0  0  0  0  0  0  0  0  0
   -0.1350    5.7650   84.3140 C   0  0  0  0  0  0  0  0  0  0  0  0
   -1.5210    5.8120   84.4570 C   0  0  0  0  0  0  0  0  0  0  0  0
   -2.1910    4.7500   85.0640 C   0  0  0  0  0  0  0  0  0  0  0  0
   -1.4840    3.6500   85.5480 C   0  0  0  0  0  0  0  0  0  0  0  0
   -2.3050    2.2440   86.3660 S   0  0  0  0  0  0  0  0  0  0  0  0
   -1.8670    2.3090   87.9300 O   0  0  0  0  0  0  0  0  0  0  0  0
   -3.9150    2.4360   86.2050 O   0  0  0  0  0  0  0  0  0  0  0  0
   -1.8060    0.7740   85.6670 N   0  0  0  0  0  0  0  0  0  0  0  0
   -0.1090    3.6170   85.4240 C   0  0  0  0  0  0  0  0  0  0  0  0
    0.5580    4.6770   84.8310 C   0  0  0  0  0  0  0  0  0  0  0  0
  2  1  1  0
  3  2  2  0
  7  2  1  0
  4  3  1  0
  5  4  2  0
  6  5  1  0
  7  6  2  0
  8  7  1  0
  9  8  2  0
 17  8  1  0
 10  9  1  0
 11 10  2  0
 12 11  1  0
 16 11  1  0
 13 12  2  0
 14 12  2  0
 15 12  1  0
 17 16  2  0
A    1
CAQ
A    2
CAF
A    3
CAE
A    4
CAD
A    5
CAC
A    6
CAB
A    7
CAA
A    8
CAG
A    9
CAH
A   10
CAI
A   11
CAJ
A   12
SAM
A   13
OAN
A   14
OAO
A   15
NAP
A   16
CAK
A   17
CAL
M  END
>  <Id>  (162) 
5SZ1_72E_A_307

>  <ChainId>  (162) 
A

>  <AsymId>  (162) 
H

>  <SeqNum>  (162) 
307

>  <Name>  (162) 
4-(2-methylphenyl)-benzenesulfonamide

>  <SystematicName>  (162) 
4-(2-methylphenyl)benzenesulfonamide

>  <Synonyms>  (162) 
2'-methyl[1,1'-biphenyl]-4-sulfonamide

>  <Type>  (162) 
NON-POLYMER

>  <Formula>  (162) 
C13 H13 N O2 S

>  <ObservedFormula>  (162) 
C13 S N O2

>  <MolecularWeight>  (162) 
247.313

>  <ModifiedDate>  (162) 
2016-12-16

>  <Parent>  (162) 


>  <OneLetterCode>  (162) 


>  <SubcomponentList>  (162) 


>  <AmbiguousFlag>  (162) 
N

>  <InsertionCode>  (162) 


>  <InstanceId>  (162) 
5SZ1_72E_A_307

>  <ChemCompId>  (162) 
72E

>  <PdbId>  (162) 
5SZ1

>  <ResidueNumber>  (162) 
307

>  <InChI>  (162) 
InChI=1S/C13H13NO2S/c1-10-4-2-3-5-13(10)11-6-8-12(9-7-11)17(14,15)16/h2-9H,1H3,(H2,14,15,16)

>  <InChIKey>  (162) 
YPAQIAZVIPIPPM-UHFFFAOYSA-N

>  <SMILES>  (162) 
Cc1ccccc1c2ccc(cc2)S(=O)(=O)N

>  <MissingHeavyAtoms>  (162) 
0

>  <Model>  (162) 
1

>  <AltIds>  (162) 


>  <pKI>  (162) 
8.92

>  <ChemblID>  (162) 
CHEMBL3764580

>  <standardized_canonical_smiles>  (162) 
Cc1ccccc1-c1ccc(S(N)(=O)=O)cc1

$$$$
5E2S_5CX_A_302
     RDKit          3D

 19 20  0  0  0  0  0  0  0  0999 V2000
   -5.9150    0.8950   16.8260 S   0  0  0  0  0  0  0  0  0  0  0  0
   -5.1920   -0.4390   16.1700 N   0  0  0  0  0  0  0  0  0  0  0  0
   -7.3270    0.8820   16.7700 O   0  0  0  0  0  0  0  0  0  0  0  0
   -5.3560    1.0330   18.0380 O   0  0  0  0  0  0  0  0  0  0  0  0
   -5.5600    2.2520   15.7680 C   0  0  0  0  0  0  0  0  0  0  0  0
   -4.4710    2.2530   14.9380 C   0  0  0  0  0  0  0  0  0  0  0  0
   -4.2380    3.3410   14.1040 C   0  0  0  0  0  0  0  0  0  0  0  0
   -5.0890    4.4460   14.1570 C   0  0  0  0  0  0  0  0  0  0  0  0
   -6.1780    4.4090   14.9850 C   0  0  0  0  0  0  0  0  0  0  0  0
   -6.4030    3.3380   15.8140 C   0  0  0  0  0  0  0  0  0  0  0  0
   -4.9160    5.5880   13.2250 C   0  0  0  0  0  0  0  0  0  0  0  0
   -6.0180    5.8880   12.4140 C   0  0  0  0  0  0  0  0  0  0  0  0
   -6.0120    6.8990   11.4840 C   0  0  0  0  0  0  0  0  0  0  0  0
   -4.8270    7.6050   11.3310 C   0  0  0  0  0  0  0  0  0  0  0  0
   -3.7180    7.3120   12.1270 C   0  0  0  0  0  0  0  0  0  0  0  0
   -3.7630    6.2970   13.0730 C   0  0  0  0  0  0  0  0  0  0  0  0
   -2.5890    5.9950   13.9210 C   0  0  0  0  0  0  0  0  0  0  0  0
   -1.5430    5.4440   12.9750 C   0  0  0  0  0  0  0  0  0  0  0  0
   -2.0400    7.2900   14.5120 C   0  0  0  0  0  0  0  0  0  0  0  0
  2  1  1  0
  3  1  2  0
  4  1  2  0
  5  1  1  0
  6  5  2  0
 10  5  1  0
  7  6  1  0
  8  7  2  0
  9  8  1  0
 11  8  1  0
 10  9  2  0
 12 11  2  0
 16 11  1  0
 13 12  1  0
 14 13  2  0
 15 14  1  0
 16 15  2  0
 17 16  1  0
 18 17  1  0
 19 17  1  0
A    1
S1
A    2
N1
A    3
O2
A    4
O3
A    5
C4
A    6
C5
A    7
C6
A    8
C7
A    9
C8
A   10
C9
A   11
C10
A   12
C11
A   13
C12
A   14
C13
A   15
C14
A   16
C15
A   17
C16
A   18
C17
A   19
C18
M  END
>  <Id>  (163) 
5E2S_5CX_A_302

>  <ChainId>  (163) 
A

>  <AsymId>  (163) 
C

>  <SeqNum>  (163) 
302

>  <Name>  (163) 
2'-(propan-2-yl)biphenyl-4-sulfonamide

>  <SystematicName>  (163) 
4-(2-propan-2-ylphenyl)benzenesulfonamide

>  <Synonyms>  (163) 


>  <Type>  (163) 
NON-POLYMER

>  <Formula>  (163) 
C15 H17 N O2 S

>  <ObservedFormula>  (163) 
S C15 N O2

>  <MolecularWeight>  (163) 
275.366

>  <ModifiedDate>  (163) 
2016-01-15

>  <Parent>  (163) 


>  <OneLetterCode>  (163) 


>  <SubcomponentList>  (163) 


>  <AmbiguousFlag>  (163) 
N

>  <InsertionCode>  (163) 


>  <InstanceId>  (163) 
5E2S_5CX_A_302

>  <ChemCompId>  (163) 
5CX

>  <PdbId>  (163) 
5E2S

>  <ResidueNumber>  (163) 
302

>  <InChI>  (163) 
InChI=1S/C15H17NO2S/c1-11(2)14-5-3-4-6-15(14)12-7-9-13(10-8-12)19(16,17)18/h3-11H,1-2H3,(H2,16,17,18)

>  <InChIKey>  (163) 
IRABTZHXKCTBRE-UHFFFAOYSA-N

>  <SMILES>  (163) 
CC(C)c1ccccc1c2ccc(cc2)S(=O)(=O)N

>  <MissingHeavyAtoms>  (163) 
0

>  <Model>  (163) 
1

>  <AltIds>  (163) 


>  <pKI>  (163) 
9.01

>  <ChemblID>  (163) 
CHEMBL3763192

>  <standardized_canonical_smiles>  (163) 
CC(C)c1ccccc1-c1ccc(S(N)(=O)=O)cc1

$$$$
5SZ6_72G_A_302
     RDKit          3D

 18 19  0  0  0  0  0  0  0  0999 V2000
   19.4540    7.4770   13.3010 C   0  0  0  0  0  0  0  0  0  0  0  0
   21.6020    8.2900   12.5010 O   0  0  0  0  0  0  0  0  0  0  0  0
   15.9730   -0.0820   16.0700 N   0  0  0  0  0  0  0  0  0  0  0  0
   18.8800    6.3090   13.7900 C   0  0  0  0  0  0  0  0  0  0  0  0
   15.8850    1.2760   18.2700 O   0  0  0  0  0  0  0  0  0  0  0  0
   20.7970    7.4150   12.5550 C   0  0  0  0  0  0  0  0  0  0  0  0
   17.6570    6.3370   14.4230 C   0  0  0  0  0  0  0  0  0  0  0  0
   15.1050    3.7940   15.7820 C   0  0  0  0  0  0  0  0  0  0  0  0
   17.3320    2.8390   15.8710 C   0  0  0  0  0  0  0  0  0  0  0  0
   16.0160    2.6570   16.1150 C   0  0  0  0  0  0  0  0  0  0  0  0
   17.0580    7.5250   14.6400 C   0  0  0  0  0  0  0  0  0  0  0  0
   17.8300    4.0900   15.2670 C   0  0  0  0  0  0  0  0  0  0  0  0
   17.6170    8.6950   14.1710 C   0  0  0  0  0  0  0  0  0  0  0  0
   17.0210    5.0570   14.9760 C   0  0  0  0  0  0  0  0  0  0  0  0
   18.7990    8.6440   13.5440 C   0  0  0  0  0  0  0  0  0  0  0  0
   15.5800    4.9140   15.2810 C   0  0  0  0  0  0  0  0  0  0  0  0
   13.9030    1.2040   16.7890 O   0  0  0  0  0  0  0  0  0  0  0  0
   15.3680    1.1810   16.8860 S   0  0  0  0  0  0  0  0  0  0  0  0
  3 18  1  0
  6  1  1  0
 11  7  2  0
 10  9  1  0
 13 11  1  0
 10 18  1  0
 16 14  2  0
 14 12  1  0
  4  7  1  0
  8 10  2  0
  6  2  2  0
 16  8  1  0
 12  9  2  0
 18 17  2  0
 15 13  2  0
  7 14  1  0
  1  4  2  0
 18  5  2  0
 15  1  1  0
A    1
CAK
A    2
OAR
A    3
NAP
A    4
CAL
A    5
OAN
A    6
CAQ
A    7
CAG
A    8
CAA
A    9
CAC
A   10
CAB
A   11
CAH
A   12
CAD
A   13
CAI
A   14
CAE
A   15
CAJ
A   16
CAF
A   17
OAO
A   18
SAM
M  END
>  <InstanceId>  (164) 
5SZ6_72G_A_302

>  <ChemCompId>  (164) 
72G

>  <PdbId>  (164) 
5SZ6

>  <ChainId>  (164) 
A

>  <ResidueNumber>  (164) 
302

>  <InsertionCode>  (164) 


>  <Model>  (164) 
1

>  <AltIds>  (164) 


>  <MissingHeavyAtoms>  (164) 
0

>  <ObservedFormula>  (164) 
C13 N O3 S

>  <AsymId>  (164) 
C

>  <SeqNum>  (164) 
302

>  <Name>  (164) 
4-(3-formylphenyl)-benzenesulfonamide

>  <SystematicName>  (164) 
4-(3-methanoylphenyl)benzenesulfonamide

>  <Synonyms>  (164) 
3'-formyl[1,1'-biphenyl]-4-sulfonamide

>  <Type>  (164) 
NON-POLYMER

>  <Formula>  (164) 
C13 H11 N O3 S

>  <MolecularWeight>  (164) 
261.296

>  <ModifiedDate>  (164) 
2016-12-16

>  <Parent>  (164) 


>  <OneLetterCode>  (164) 


>  <SubcomponentList>  (164) 


>  <AmbiguousFlag>  (164) 
N

>  <InChI>  (164) 
null

>  <InChIKey>  (164) 
null

>  <SMILES>  (164) 
c1cc(cc(c1)c2ccc(cc2)S(=O)(=O)N)C=O

>  <pKI>  (164) 
8.68

>  <ChemblID>  (164) 
CHEMBL3765495

>  <standardized_canonical_smiles>  (164) 
NS(=O)(=O)c1ccc(-c2cccc(C=O)c2)cc1

$$$$
5SZ2_72G_A_308
     RDKit          3D

 18 19  0  0  0  0  0  0  0  0999 V2000
   -0.7630    8.2330   81.4330 C   0  0  0  0  0  0  0  0  0  0  0  0
   -2.6500    8.3650   79.9790 O   0  0  0  0  0  0  0  0  0  0  0  0
   -1.6710    0.8500   85.8670 N   0  0  0  0  0  0  0  0  0  0  0  0
   -1.0980    7.0610   82.1350 C   0  0  0  0  0  0  0  0  0  0  0  0
   -1.9350    2.4330   87.8660 O   0  0  0  0  0  0  0  0  0  0  0  0
   -1.5430    8.7540   80.2420 C   0  0  0  0  0  0  0  0  0  0  0  0
   -0.2650    6.7820   83.2090 C   0  0  0  0  0  0  0  0  0  0  0  0
   -2.5510    4.6380   85.1020 C   0  0  0  0  0  0  0  0  0  0  0  0
   -0.2950    3.5460   85.1770 C   0  0  0  0  0  0  0  0  0  0  0  0
   -1.5670    3.5670   85.4970 C   0  0  0  0  0  0  0  0  0  0  0  0
    0.8490    7.5020   83.5580 C   0  0  0  0  0  0  0  0  0  0  0  0
    0.2410    4.6850   84.3530 C   0  0  0  0  0  0  0  0  0  0  0  0
    1.1940    8.6170   82.8340 C   0  0  0  0  0  0  0  0  0  0  0  0
   -0.6290    5.6050   84.0310 C   0  0  0  0  0  0  0  0  0  0  0  0
    0.3790    8.9670   81.7660 C   0  0  0  0  0  0  0  0  0  0  0  0
   -2.0940    5.6130   84.4080 C   0  0  0  0  0  0  0  0  0  0  0  0
   -3.7590    2.4270   86.3020 O   0  0  0  0  0  0  0  0  0  0  0  0
   -2.3200    2.2780   86.4660 S   0  0  0  0  0  0  0  0  0  0  0  0
  3 18  1  0
  6  1  1  0
 11  7  2  0
 10  9  1  0
 13 11  1  0
 10 18  1  0
 16 14  2  0
 14 12  1  0
  4  7  1  0
  8 10  2  0
  6  2  2  0
 16  8  1  0
 12  9  2  0
 18 17  2  0
 15 13  2  0
  7 14  1  0
  1  4  2  0
 18  5  2  0
 15  1  1  0
A    1
CAK
A    2
OAR
A    3
NAP
A    4
CAL
A    5
OAN
A    6
CAQ
A    7
CAG
A    8
CAA
A    9
CAC
A   10
CAB
A   11
CAH
A   12
CAD
A   13
CAI
A   14
CAE
A   15
CAJ
A   16
CAF
A   17
OAO
A   18
SAM
M  END
>  <InstanceId>  (165) 
5SZ2_72G_A_308

>  <ChemCompId>  (165) 
72G

>  <PdbId>  (165) 
5SZ2

>  <ChainId>  (165) 
A

>  <ResidueNumber>  (165) 
308

>  <InsertionCode>  (165) 


>  <Model>  (165) 
1

>  <AltIds>  (165) 


>  <MissingHeavyAtoms>  (165) 
0

>  <ObservedFormula>  (165) 
C13 N O3 S

>  <AsymId>  (165) 
I

>  <SeqNum>  (165) 
308

>  <Name>  (165) 
4-(3-formylphenyl)-benzenesulfonamide

>  <SystematicName>  (165) 
4-(3-methanoylphenyl)benzenesulfonamide

>  <Synonyms>  (165) 
3'-formyl[1,1'-biphenyl]-4-sulfonamide

>  <Type>  (165) 
NON-POLYMER

>  <Formula>  (165) 
C13 H11 N O3 S

>  <MolecularWeight>  (165) 
261.296

>  <ModifiedDate>  (165) 
2016-12-16

>  <Parent>  (165) 


>  <OneLetterCode>  (165) 


>  <SubcomponentList>  (165) 


>  <AmbiguousFlag>  (165) 
N

>  <InChI>  (165) 
null

>  <InChIKey>  (165) 
null

>  <SMILES>  (165) 
c1cc(cc(c1)c2ccc(cc2)S(=O)(=O)N)C=O

>  <pKI>  (165) 
8.68

>  <ChemblID>  (165) 
CHEMBL3765495

>  <standardized_canonical_smiles>  (165) 
NS(=O)(=O)c1ccc(-c2cccc(C=O)c2)cc1

$$$$
5E2K_BX4_A_303
     RDKit          3D

 17 18  0  0  0  0  0  0  0  0999 V2000
   10.8010   -0.8290   14.1110 S   0  0  0  0  0  0  0  0  0  0  0  0
    9.7260   -1.9790   14.4470 N   0  0  0  0  0  0  0  0  0  0  0  0
   11.6660   -0.7020   15.2500 O   0  0  0  0  0  0  0  0  0  0  0  0
   10.0720    0.3230   13.6600 O   0  0  0  0  0  0  0  0  0  0  0  0
   11.7860   -1.4000   12.7550 C   0  0  0  0  0  0  0  0  0  0  0  0
   12.0190   -0.5690   11.6670 C   0  0  0  0  0  0  0  0  0  0  0  0
   12.7920   -1.0170   10.6020 C   0  0  0  0  0  0  0  0  0  0  0  0
   13.3320   -2.2980   10.6260 C   0  0  0  0  0  0  0  0  0  0  0  0
   13.0980   -3.1300   11.7150 C   0  0  0  0  0  0  0  0  0  0  0  0
   12.3250   -2.6810   12.7800 C   0  0  0  0  0  0  0  0  0  0  0  0
   14.1590   -2.7780    9.4880 C   0  0  0  0  0  0  0  0  0  0  0  0
   14.7860   -1.8640    8.6500 C   0  0  0  0  0  0  0  0  0  0  0  0
   15.5590   -2.3130    7.5850 C   0  0  0  0  0  0  0  0  0  0  0  0
   15.7040   -3.6760    7.3590 C   0  0  0  0  0  0  0  0  0  0  0  0
   15.0770   -4.5910    8.1960 C   0  0  0  0  0  0  0  0  0  0  0  0
   14.3040   -4.1420    9.2610 C   0  0  0  0  0  0  0  0  0  0  0  0
   15.2210   -5.9450    7.9710 N   0  0  0  0  0  0  0  0  0  0  0  0
  2  1  1  0
  3  1  2  0
  4  1  2  0
  5  1  1  0
  6  5  2  0
 10  5  1  0
  7  6  1  0
  8  7  2  0
  9  8  1  0
 11  8  1  0
 10  9  2  0
 12 11  2  0
 16 11  1  0
 13 12  1  0
 14 13  2  0
 15 14  1  0
 16 15  2  0
 17 15  1  0
A    1
S1
A    2
N1
A    3
O2
A    4
O3
A    5
C4
A    6
C5
A    7
C6
A    8
C7
A    9
C8
A   10
C9
A   11
C10
A   12
C11
A   13
C12
A   14
C13
A   15
C14
A   16
C15
A   17
N2
M  END
>  <Id>  (166) 
5E2K_BX4_A_303

>  <ChainId>  (166) 
A

>  <AsymId>  (166) 
D

>  <SeqNum>  (166) 
303

>  <Name>  (166) 
3'-aminobiphenyl-4-sulfonamide

>  <SystematicName>  (166) 
4-(3-aminophenyl)benzenesulfonamide

>  <Synonyms>  (166) 


>  <Type>  (166) 
NON-POLYMER

>  <Formula>  (166) 
C12 H12 N2 O2 S

>  <ObservedFormula>  (166) 
S C12 N2 O2

>  <MolecularWeight>  (166) 
248.301

>  <ModifiedDate>  (166) 
2016-01-15

>  <Parent>  (166) 


>  <OneLetterCode>  (166) 


>  <SubcomponentList>  (166) 


>  <AmbiguousFlag>  (166) 
N

>  <InsertionCode>  (166) 


>  <InstanceId>  (166) 
5E2K_BX4_A_303

>  <ChemCompId>  (166) 
BX4

>  <PdbId>  (166) 
5E2K

>  <ResidueNumber>  (166) 
303

>  <InChI>  (166) 
InChI=1S/C12H12N2O2S/c13-11-3-1-2-10(8-11)9-4-6-12(7-5-9)17(14,15)16/h1-8H,13H2,(H2,14,15,16)

>  <InChIKey>  (166) 
BJLAHYUZLVYPAA-UHFFFAOYSA-N

>  <SMILES>  (166) 
c1cc(cc(c1)N)c2ccc(cc2)S(=O)(=O)N

>  <MissingHeavyAtoms>  (166) 
0

>  <Model>  (166) 
1

>  <AltIds>  (166) 


>  <pKI>  (166) 
8.03

>  <ChemblID>  (166) 
CHEMBL3763967

>  <standardized_canonical_smiles>  (166) 
Nc1cccc(-c2ccc(S(N)(=O)=O)cc2)c1

$$$$
5N24_8HE_A_303
     RDKit          3D

 18 19  0  0  0  0  0  0  0  0999 V2000
   13.3810   -2.5320   10.6420 C   0  0  0  0  0  0  0  0  0  0  0  0
   12.8090   -1.2580   10.5280 C   0  0  0  0  0  0  0  0  0  0  0  0
   12.0310   -0.7260   11.5640 C   0  0  0  0  0  0  0  0  0  0  0  0
   14.0960   -4.4960    9.3050 C   0  0  0  0  0  0  0  0  0  0  0  0
   14.7220   -5.0890    8.2060 C   0  0  0  0  0  0  0  0  0  0  0  0
   15.3860   -4.3020    7.2610 C   0  0  0  0  0  0  0  0  0  0  0  0
   15.4180   -2.9130    7.4160 C   0  0  0  0  0  0  0  0  0  0  0  0
   14.7820   -2.3210    8.5190 C   0  0  0  0  0  0  0  0  0  0  0  0
   11.7780   -1.4680   12.7240 C   0  0  0  0  0  0  0  0  0  0  0  0
   12.3110   -2.7600   12.8190 C   0  0  0  0  0  0  0  0  0  0  0  0
   13.0900   -3.2910   11.7800 C   0  0  0  0  0  0  0  0  0  0  0  0
   10.8550   -0.8820   13.9170 S   0  0  0  0  0  0  0  0  0  0  0  0
   10.2490    0.3550   13.4900 O   0  0  0  0  0  0  0  0  0  0  0  0
   11.5940   -0.6470   15.1390 O   0  0  0  0  0  0  0  0  0  0  0  0
    9.7540   -2.0070   14.2170 N   0  0  0  0  0  0  0  0  0  0  0  0
   14.1420   -3.1080    9.4870 C   0  0  0  0  0  0  0  0  0  0  0  0
   16.3720   -5.4030    5.2920 N   0  0  0  0  0  0  0  0  0  0  0  0
   15.9390   -4.8670    6.2410 C   0  0  0  0  0  0  0  0  0  0  0  0
  2  1  2  0
 11  1  1  0
 16  1  1  0
  3  2  1  0
  9  3  2  0
  5  4  2  0
 16  4  1  0
  6  5  1  0
  7  6  2  0
 18  6  1  0
  8  7  1  0
 16  8  2  0
 10  9  1  0
 12  9  1  0
 11 10  2  0
 13 12  2  0
 14 12  2  0
 15 12  1  0
 18 17  3  0
A    1
C1
A    2
C2
A    3
C3
A    4
C5
A    5
C6
A    6
C7
A    7
C8
A    8
C9
A    9
C10
A   10
C11
A   11
C12
A   12
S1
A   13
O1
A   14
O2
A   15
N3
A   16
C4
A   17
N7
A   18
C81
M  END
>  <Id>  (167) 
5N24_8HE_A_303

>  <ChainId>  (167) 
A

>  <AsymId>  (167) 
D

>  <SeqNum>  (167) 
303

>  <Name>  (167) 
4-(4-cyanophenyl)benzenesulfonamide

>  <SystematicName>  (167) 
4-(4-cyanophenyl)benzenesulfonamide

>  <Synonyms>  (167) 


>  <Type>  (167) 
NON-POLYMER

>  <Formula>  (167) 
C13 H10 N2 O2 S

>  <ObservedFormula>  (167) 
C13 S N2 O2

>  <MolecularWeight>  (167) 
258.296

>  <ModifiedDate>  (167) 
2017-12-22

>  <Parent>  (167) 


>  <OneLetterCode>  (167) 


>  <SubcomponentList>  (167) 


>  <AmbiguousFlag>  (167) 
N

>  <InsertionCode>  (167) 


>  <InstanceId>  (167) 
5N24_8HE_A_303

>  <ChemCompId>  (167) 
8HE

>  <PdbId>  (167) 
5N24

>  <ResidueNumber>  (167) 
303

>  <InChI>  (167) 
InChI=1S/C13H10N2O2S/c14-9-10-1-3-11(4-2-10)12-5-7-13(8-6-12)18(15,16)17/h1-8H,(H2,15,16,17)

>  <InChIKey>  (167) 
LPESBVCEXRGQGA-UHFFFAOYSA-N

>  <SMILES>  (167) 
c1cc(ccc1C#N)c2ccc(cc2)S(=O)(=O)N

>  <MissingHeavyAtoms>  (167) 
0

>  <Model>  (167) 
1

>  <AltIds>  (167) 


>  <pKI>  (167) 
8.92

>  <ChemblID>  (167) 
CHEMBL3763508

>  <standardized_canonical_smiles>  (167) 
N#Cc1ccc(-c2ccc(S(N)(=O)=O)cc2)cc1

$$$$
5N1R_8GH_A_303
     RDKit          3D

 22 24  0  0  0  0  0  0  0  0999 V2000
   -3.6990    2.1030   15.5500 C   0  0  0  0  0  0  0  0  0  0  0  0
   -3.0580    3.1680   14.9300 C   0  0  0  0  0  0  0  0  0  0  0  0
   -3.7350    4.3320   14.5890 C   0  0  0  0  0  0  0  0  0  0  0  0
   -5.1220    4.3750   14.8400 C   0  0  0  0  0  0  0  0  0  0  0  0
   -5.7760    3.3030   15.4460 C   0  0  0  0  0  0  0  0  0  0  0  0
   -2.2790   10.1840   11.7160 C   0  0  0  0  0  0  0  0  0  0  0  0
   -2.7770   11.4520   11.8830 C   0  0  0  0  0  0  0  0  0  0  0  0
   -5.0570    2.1730   15.8220 C   0  0  0  0  0  0  0  0  0  0  0  0
   -2.9600    5.4880   14.1010 C   0  0  0  0  0  0  0  0  0  0  0  0
   -3.0910    6.7380   14.6810 C   0  0  0  0  0  0  0  0  0  0  0  0
   -2.2850    7.7900   14.2790 C   0  0  0  0  0  0  0  0  0  0  0  0
   -1.3360    7.6180   13.2810 C   0  0  0  0  0  0  0  0  0  0  0  0
   -1.1970    6.3650   12.7070 C   0  0  0  0  0  0  0  0  0  0  0  0
   -1.9850    5.3110   13.1250 C   0  0  0  0  0  0  0  0  0  0  0  0
   -0.4850    8.7920   12.8330 C   0  0  0  0  0  0  0  0  0  0  0  0
   -2.0890   11.9610   12.9860 C   0  0  0  0  0  0  0  0  0  0  0  0
   -5.8570    0.8510   16.7270 S   0  0  0  0  0  0  0  0  0  0  0  0
   -1.3430    9.9960   12.6760 N   0  0  0  0  0  0  0  0  0  0  0  0
   -1.2230   11.0810   13.4900 N   0  0  0  0  0  0  0  0  0  0  0  0
   -5.4200   -0.4870   16.1320 O   0  0  0  0  0  0  0  0  0  0  0  0
   -5.4860    1.0100   18.1140 O   0  0  0  0  0  0  0  0  0  0  0  0
   -7.3380    1.0480   16.5220 N   0  0  0  0  0  0  0  0  0  0  0  0
  2  1  2  0
  8  1  1  0
  3  2  1  0
  4  3  2  0
  9  3  1  0
  5  4  1  0
  8  5  2  0
  7  6  2  0
 18  6  1  0
 16  7  1  0
 17  8  1  0
 10  9  2  0
 14  9  1  0
 11 10  1  0
 12 11  2  0
 13 12  1  0
 15 12  1  0
 14 13  2  0
 18 15  1  0
 19 16  2  0
 20 17  2  0
 21 17  2  0
 22 17  1  0
 19 18  1  0
A    1
C2
A    2
C3
A    3
C4
A    4
C5
A    5
C6
A    6
C17
A    7
C16
A    8
C1
A    9
C7
A   10
C8
A   11
C9
A   12
C10
A   13
C11
A   14
C12
A   15
C13
A   16
C15
A   17
S1
A   18
N13
A   19
N14
A   20
O18
A   21
O19
A   22
N20
M  END
>  <Id>  (168) 
5N1R_8GH_A_303

>  <ChainId>  (168) 
A

>  <AsymId>  (168) 
D

>  <SeqNum>  (168) 
303

>  <Name>  (168) 
4-[4-(pyrazol-1-ylmethyl)phenyl]benzenesulfonamide

>  <SystematicName>  (168) 
4-[4-(pyrazol-1-ylmethyl)phenyl]benzenesulfonamide

>  <Synonyms>  (168) 


>  <Type>  (168) 
NON-POLYMER

>  <Formula>  (168) 
C16 H15 N3 O2 S

>  <ObservedFormula>  (168) 
C16 S N3 O2

>  <MolecularWeight>  (168) 
313.374

>  <ModifiedDate>  (168) 
2017-12-22

>  <Parent>  (168) 


>  <OneLetterCode>  (168) 


>  <SubcomponentList>  (168) 


>  <AmbiguousFlag>  (168) 
N

>  <InsertionCode>  (168) 


>  <InstanceId>  (168) 
5N1R_8GH_A_303

>  <ChemCompId>  (168) 
8GH

>  <PdbId>  (168) 
5N1R

>  <ResidueNumber>  (168) 
303

>  <InChI>  (168) 
InChI=1S/C16H15N3O2S/c17-22(20,21)16-8-6-15(7-9-16)14-4-2-13(3-5-14)12-19-11-1-10-18-19/h1-11H,12H2,(H2,17,20,21)

>  <InChIKey>  (168) 
ISHVKZQPCLEIEP-UHFFFAOYSA-N

>  <SMILES>  (168) 
c1cnn(c1)Cc2ccc(cc2)c3ccc(cc3)S(=O)(=O)N

>  <MissingHeavyAtoms>  (168) 
0

>  <Model>  (168) 
1

>  <AltIds>  (168) 


>  <pKI>  (168) 
7.95

>  <ChemblID>  (168) 
CHEMBL3763884

>  <standardized_canonical_smiles>  (168) 
NS(=O)(=O)c1ccc(-c2ccc(Cn3cccn3)cc2)cc1

$$$$
5N25_8HK_A_303
     RDKit          3D

 16 17  0  0  0  0  0  0  0  0999 V2000
   13.0600   -2.9060   11.7340 C   0  0  0  0  0  0  0  0  0  0  0  0
   11.7120   -1.2300   12.7760 C   0  0  0  0  0  0  0  0  0  0  0  0
   12.6360   -0.8440   10.6030 C   0  0  0  0  0  0  0  0  0  0  0  0
   11.4960   -0.6100   15.2880 O   0  0  0  0  0  0  0  0  0  0  0  0
   14.0610   -2.5680    9.4570 C   0  0  0  0  0  0  0  0  0  0  0  0
   14.7470   -1.6810    8.6320 C   0  0  0  0  0  0  0  0  0  0  0  0
   14.9370   -4.3260    8.0710 C   0  0  0  0  0  0  0  0  0  0  0  0
   11.8810   -0.4020   11.6770 C   0  0  0  0  0  0  0  0  0  0  0  0
   13.2420   -2.1010   10.6090 C   0  0  0  0  0  0  0  0  0  0  0  0
   15.5750   -3.3620    7.3190 C   0  0  0  0  0  0  0  0  0  0  0  0
    9.6270   -1.8910   14.3830 N   0  0  0  0  0  0  0  0  0  0  0  0
   14.1750   -3.9220    9.1520 C   0  0  0  0  0  0  0  0  0  0  0  0
   10.6730   -0.7210   14.1100 S   0  0  0  0  0  0  0  0  0  0  0  0
   12.3030   -2.4810   12.8120 C   0  0  0  0  0  0  0  0  0  0  0  0
    9.9400    0.4300   13.6720 O   0  0  0  0  0  0  0  0  0  0  0  0
   15.4950   -2.0520    7.5840 N   0  0  0  0  0  0  0  0  0  0  0  0
  9  1  2  0
 14  1  1  0
  8  2  1  0
 13  2  1  0
 14  2  2  0
  8  3  2  0
  9  3  1  0
 13  4  2  0
  6  5  2  0
  9  5  1  0
 12  5  1  0
 16  6  1  0
 10  7  1  0
 12  7  2  0
 16 10  2  0
 13 11  1  0
 15 13  2  0
A    1
C2
A    2
C10
A    3
C12
A    4
O1
A    5
C4
A    6
C5
A    7
C8
A    8
C11
A    9
C1
A   10
C7
A   11
N3
A   12
C9
A   13
S1
A   14
C3
A   15
O2
A   16
N6
M  END
>  <Id>  (169) 
5N25_8HK_A_303

>  <ChainId>  (169) 
A

>  <AsymId>  (169) 
D

>  <SeqNum>  (169) 
303

>  <Name>  (169) 
4-pyridin-3-ylbenzenesulfonamide

>  <SystematicName>  (169) 
4-pyridin-3-ylbenzenesulfonamide

>  <Synonyms>  (169) 


>  <Type>  (169) 
NON-POLYMER

>  <Formula>  (169) 
C11 H10 N2 O2 S

>  <ObservedFormula>  (169) 
C11 S N2 O2

>  <MolecularWeight>  (169) 
234.274

>  <ModifiedDate>  (169) 
2017-12-22

>  <Parent>  (169) 


>  <OneLetterCode>  (169) 


>  <SubcomponentList>  (169) 


>  <AmbiguousFlag>  (169) 
N

>  <InsertionCode>  (169) 


>  <InstanceId>  (169) 
5N25_8HK_A_303

>  <ChemCompId>  (169) 
8HK

>  <PdbId>  (169) 
5N25

>  <ResidueNumber>  (169) 
303

>  <InChI>  (169) 
InChI=1S/C11H10N2O2S/c12-16(14,15)11-5-3-9(4-6-11)10-2-1-7-13-8-10/h1-8H,(H2,12,14,15)

>  <InChIKey>  (169) 
FGJNMMSBSNRDFJ-UHFFFAOYSA-N

>  <SMILES>  (169) 
c1cc(cnc1)c2ccc(cc2)S(=O)(=O)N

>  <MissingHeavyAtoms>  (169) 
0

>  <Model>  (169) 
1

>  <AltIds>  (169) 


>  <pKI>  (169) 
7.78

>  <ChemblID>  (169) 
CHEMBL3763387

>  <standardized_canonical_smiles>  (169) 
NS(=O)(=O)c1ccc(-c2cccnc2)cc1

$$$$
5SZ3_72H_A_307
     RDKit          3D

 20 22  0  0  0  0  0  0  0  0999 V2000
    0.4700    5.9580   84.4200 C   0  0  0  0  0  0  0  0  0  0  0  0
    1.3710    6.8310   83.9130 C   0  0  0  0  0  0  0  0  0  0  0  0
    1.6180    8.0320   84.5650 C   0  0  0  0  0  0  0  0  0  0  0  0
    2.5350    8.9270   84.0540 C   0  0  0  0  0  0  0  0  0  0  0  0
    3.2040    8.6150   82.8890 C   0  0  0  0  0  0  0  0  0  0  0  0
    2.9610    7.4140   82.2410 C   0  0  0  0  0  0  0  0  0  0  0  0
    2.0390    6.5190   82.7550 C   0  0  0  0  0  0  0  0  0  0  0  0
    1.8050    5.3600   82.1260 N   0  0  0  0  0  0  0  0  0  0  0  0
    0.9110    4.4790   82.6200 C   0  0  0  0  0  0  0  0  0  0  0  0
    0.2040    4.8030   83.7670 C   0  0  0  0  0  0  0  0  0  0  0  0
   -0.7510    3.7990   84.3710 C   0  0  0  0  0  0  0  0  0  0  0  0
    0.0450    2.6280   84.9000 C   0  0  0  0  0  0  0  0  0  0  0  0
   -0.5440    1.6360   85.4900 C   0  0  0  0  0  0  0  0  0  0  0  0
   -2.0450    1.6580   85.6430 C   0  0  0  0  0  0  0  0  0  0  0  0
   -2.6820    0.1940   86.4910 S   0  0  0  0  0  0  0  0  0  0  0  0
   -4.1490    0.1790   86.5030 O   0  0  0  0  0  0  0  0  0  0  0  0
   -2.3020    0.2820   87.9050 O   0  0  0  0  0  0  0  0  0  0  0  0
   -1.9650   -1.1820   85.7860 N   0  0  0  0  0  0  0  0  0  0  0  0
   -2.7670    2.6750   85.1980 C   0  0  0  0  0  0  0  0  0  0  0  0
   -2.0620    3.8490   84.5080 C   0  0  0  0  0  0  0  0  0  0  0  0
  2  1  2  0
 10  1  1  0
  3  2  1  0
  7  2  1  0
  4  3  2  0
  5  4  1  0
  6  5  2  0
  7  6  1  0
  8  7  2  0
  9  8  1  0
 10  9  2  0
 11 10  1  0
 12 11  2  0
 20 11  1  0
 13 12  1  0
 14 13  2  0
 15 14  1  0
 19 14  1  0
 16 15  2  0
 17 15  2  0
 18 15  1  0
 20 19  2  0
A    1
CAL
A    2
CAK
A    3
CAP
A    4
CAO
A    5
CAN
A    6
CAM
A    7
CAJ
A    8
NAI
A    9
CAH
A   10
CAG
A   11
CAE
A   12
CAD
A   13
CAC
A   14
CAB
A   15
SAQ
A   16
OAR
A   17
OAS
A   18
NAT
A   19
CAA
A   20
CAF
M  END
>  <Id>  (170) 
5SZ3_72H_A_307

>  <ChainId>  (170) 
A

>  <AsymId>  (170) 
H

>  <SeqNum>  (170) 
307

>  <Name>  (170) 
4-(3-quinolinyl)-benzenesulfonamide

>  <SystematicName>  (170) 
4-quinolin-3-ylbenzenesulfonamide

>  <Synonyms>  (170) 
4-(quinolin-3-yl)benzene-1-sulfonamide

>  <Type>  (170) 
NON-POLYMER

>  <Formula>  (170) 
C15 H12 N2 O2 S

>  <ObservedFormula>  (170) 
C15 S N2 O2

>  <MolecularWeight>  (170) 
284.333

>  <ModifiedDate>  (170) 
2016-12-16

>  <Parent>  (170) 


>  <OneLetterCode>  (170) 


>  <SubcomponentList>  (170) 


>  <AmbiguousFlag>  (170) 
N

>  <InsertionCode>  (170) 


>  <InstanceId>  (170) 
5SZ3_72H_A_307

>  <ChemCompId>  (170) 
72H

>  <PdbId>  (170) 
5SZ3

>  <ResidueNumber>  (170) 
307

>  <InChI>  (170) 
InChI=1S/C15H12N2O2S/c16-20(18,19)14-7-5-11(6-8-14)13-9-12-3-1-2-4-15(12)17-10-13/h1-10H,(H2,16,18,19)

>  <InChIKey>  (170) 
HGZKFXIUXSUJHM-UHFFFAOYSA-N

>  <SMILES>  (170) 
c1ccc2c(c1)cc(cn2)c3ccc(cc3)S(=O)(=O)N

>  <MissingHeavyAtoms>  (170) 
0

>  <Model>  (170) 
1

>  <AltIds>  (170) 


>  <pKI>  (170) 
8.6

>  <ChemblID>  (170) 
CHEMBL3764628

>  <standardized_canonical_smiles>  (170) 
NS(=O)(=O)c1ccc(-c2cnc3ccccc3c2)cc1

$$$$
5SZ7_72H_A_302
     RDKit          3D

 20 22  0  0  0  0  0  0  0  0999 V2000
    0.2020    9.5160   84.9000 C   0  0  0  0  0  0  0  0  0  0  0  0
    0.7810   10.6710   84.4600 C   0  0  0  0  0  0  0  0  0  0  0  0
    0.2360   11.9110   84.7810 C   0  0  0  0  0  0  0  0  0  0  0  0
    0.8320   13.0850   84.3380 C   0  0  0  0  0  0  0  0  0  0  0  0
    1.9680   13.0270   83.5560 C   0  0  0  0  0  0  0  0  0  0  0  0
    2.5100   11.7940   83.2260 C   0  0  0  0  0  0  0  0  0  0  0  0
    1.9200   10.6160   83.6800 C   0  0  0  0  0  0  0  0  0  0  0  0
    2.4620    9.4320   83.3520 N   0  0  0  0  0  0  0  0  0  0  0  0
    1.9060    8.2750   83.7790 C   0  0  0  0  0  0  0  0  0  0  0  0
    0.7450    8.3120   84.5440 C   0  0  0  0  0  0  0  0  0  0  0  0
    0.1210    7.0380   85.0850 C   0  0  0  0  0  0  0  0  0  0  0  0
    1.0490    5.9100   85.5370 C   0  0  0  0  0  0  0  0  0  0  0  0
    0.5410    4.8210   86.0580 C   0  0  0  0  0  0  0  0  0  0  0  0
   -0.9620    4.7120   86.2100 C   0  0  0  0  0  0  0  0  0  0  0  0
   -1.5950    3.1880   86.9510 S   0  0  0  0  0  0  0  0  0  0  0  0
   -3.0670    3.2280   86.9670 O   0  0  0  0  0  0  0  0  0  0  0  0
   -1.2180    3.2320   88.3760 O   0  0  0  0  0  0  0  0  0  0  0  0
   -0.9410    1.8170   86.1660 N   0  0  0  0  0  0  0  0  0  0  0  0
   -1.7710    5.6840   85.8390 C   0  0  0  0  0  0  0  0  0  0  0  0
   -1.1790    6.9530   85.2400 C   0  0  0  0  0  0  0  0  0  0  0  0
  2  1  2  0
 10  1  1  0
  3  2  1  0
  7  2  1  0
  4  3  2  0
  5  4  1  0
  6  5  2  0
  7  6  1  0
  8  7  2  0
  9  8  1  0
 10  9  2  0
 11 10  1  0
 12 11  2  0
 20 11  1  0
 13 12  1  0
 14 13  2  0
 15 14  1  0
 19 14  1  0
 16 15  2  0
 17 15  2  0
 18 15  1  0
 20 19  2  0
A    1
CAL
A    2
CAK
A    3
CAP
A    4
CAO
A    5
CAN
A    6
CAM
A    7
CAJ
A    8
NAI
A    9
CAH
A   10
CAG
A   11
CAE
A   12
CAD
A   13
CAC
A   14
CAB
A   15
SAQ
A   16
OAR
A   17
OAS
A   18
NAT
A   19
CAA
A   20
CAF
M  END
>  <Id>  (171) 
5SZ7_72H_A_302

>  <ChainId>  (171) 
A

>  <AsymId>  (171) 
C

>  <SeqNum>  (171) 
302

>  <Name>  (171) 
4-(3-quinolinyl)-benzenesulfonamide

>  <SystematicName>  (171) 
4-quinolin-3-ylbenzenesulfonamide

>  <Synonyms>  (171) 
4-(quinolin-3-yl)benzene-1-sulfonamide

>  <Type>  (171) 
NON-POLYMER

>  <Formula>  (171) 
C15 H12 N2 O2 S

>  <ObservedFormula>  (171) 
C15 S N2 O2

>  <MolecularWeight>  (171) 
284.333

>  <ModifiedDate>  (171) 
2016-12-16

>  <Parent>  (171) 


>  <OneLetterCode>  (171) 


>  <SubcomponentList>  (171) 


>  <AmbiguousFlag>  (171) 
N

>  <InsertionCode>  (171) 


>  <InstanceId>  (171) 
5SZ7_72H_A_302

>  <ChemCompId>  (171) 
72H

>  <PdbId>  (171) 
5SZ7

>  <ResidueNumber>  (171) 
302

>  <InChI>  (171) 
InChI=1S/C15H12N2O2S/c16-20(18,19)14-7-5-11(6-8-14)13-9-12-3-1-2-4-15(12)17-10-13/h1-10H,(H2,16,18,19)

>  <InChIKey>  (171) 
HGZKFXIUXSUJHM-UHFFFAOYSA-N

>  <SMILES>  (171) 
c1ccc2c(c1)cc(cn2)c3ccc(cc3)S(=O)(=O)N

>  <MissingHeavyAtoms>  (171) 
0

>  <Model>  (171) 
1

>  <AltIds>  (171) 


>  <pKI>  (171) 
8.6

>  <ChemblID>  (171) 
CHEMBL3764628

>  <standardized_canonical_smiles>  (171) 
NS(=O)(=O)c1ccc(-c2cnc3ccccc3c2)cc1

$$$$
5N1S_8GE_A_303
     RDKit          3D

 19 21  0  0  0  0  0  0  0  0999 V2000
   -5.9670    0.8580   16.7720 S   0  0  0  0  0  0  0  0  0  0  0  0
   -5.4520    0.9750   18.1220 O   0  0  0  0  0  0  0  0  0  0  0  0
   -7.3790    0.9800   16.5400 O   0  0  0  0  0  0  0  0  0  0  0  0
   -5.4250   -0.5030   16.0640 N   0  0  0  0  0  0  0  0  0  0  0  0
   -5.2530    2.2460   15.9320 C   0  0  0  0  0  0  0  0  0  0  0  0
   -6.0180    3.3690   15.5590 C   0  0  0  0  0  0  0  0  0  0  0  0
   -5.3870    4.4850   15.0200 C   0  0  0  0  0  0  0  0  0  0  0  0
   -4.0160    4.5140   14.8450 C   0  0  0  0  0  0  0  0  0  0  0  0
   -3.2860    3.3950   15.1500 C   0  0  0  0  0  0  0  0  0  0  0  0
   -3.8790    2.2780   15.7230 C   0  0  0  0  0  0  0  0  0  0  0  0
   -0.2800    8.8450   12.9590 C   0  0  0  0  0  0  0  0  0  0  0  0
   -1.2330    9.7090   13.5130 C   0  0  0  0  0  0  0  0  0  0  0  0
   -0.4880    7.4650   12.9510 C   0  0  0  0  0  0  0  0  0  0  0  0
   -1.6330    6.9590   13.5640 C   0  0  0  0  0  0  0  0  0  0  0  0
   -2.1260    5.6300   13.7360 C   0  0  0  0  0  0  0  0  0  0  0  0
   -2.5630    7.8150   14.1450 C   0  0  0  0  0  0  0  0  0  0  0  0
   -2.3900    9.2230   14.1100 C   0  0  0  0  0  0  0  0  0  0  0  0
   -3.6210    7.0170   14.6850 N   0  0  0  0  0  0  0  0  0  0  0  0
   -3.2970    5.6850   14.4100 C   0  0  0  0  0  0  0  0  0  0  0  0
  2  1  2  0
  3  1  2  0
  4  1  1  0
  5  1  1  0
  6  5  2  0
 10  5  1  0
  7  6  1  0
  8  7  2  0
  9  8  1  0
 19  8  1  0
 10  9  2  0
 12 11  2  0
 13 11  1  0
 17 12  1  0
 14 13  2  0
 15 14  1  0
 16 14  1  0
 19 15  2  0
 17 16  2  0
 18 16  1  0
 19 18  1  0
A    1
S1
A    2
O1
A    3
O2
A    4
N3
A    5
C4
A    6
C5
A    7
C6
A    8
C7
A    9
C8
A   10
C9
A   11
C3
A   12
C2
A   13
C41
A   14
C51
A   15
C91
A   16
C61
A   17
C1
A   18
N7
A   19
C81
M  END
>  <Id>  (172) 
5N1S_8GE_A_303

>  <ChainId>  (172) 
A

>  <AsymId>  (172) 
D

>  <SeqNum>  (172) 
303

>  <Name>  (172) 
4-(1~{H}-indol-2-yl)benzenesulfonamide

>  <SystematicName>  (172) 
4-(1~{H}-indol-2-yl)benzenesulfonamide

>  <Synonyms>  (172) 


>  <Type>  (172) 
NON-POLYMER

>  <Formula>  (172) 
C14 H12 N2 O2 S

>  <ObservedFormula>  (172) 
S C14 N2 O2

>  <MolecularWeight>  (172) 
272.322

>  <ModifiedDate>  (172) 
2017-12-22

>  <Parent>  (172) 


>  <OneLetterCode>  (172) 


>  <SubcomponentList>  (172) 


>  <AmbiguousFlag>  (172) 
N

>  <InsertionCode>  (172) 


>  <InstanceId>  (172) 
5N1S_8GE_A_303

>  <ChemCompId>  (172) 
8GE

>  <PdbId>  (172) 
5N1S

>  <ResidueNumber>  (172) 
303

>  <InChI>  (172) 
InChI=1S/C14H12N2O2S/c15-19(17,18)12-7-5-10(6-8-12)14-9-11-3-1-2-4-13(11)16-14/h1-9,16H,(H2,15,17,18)

>  <InChIKey>  (172) 
FQMXYEJYLSYDSS-UHFFFAOYSA-N

>  <SMILES>  (172) 
c1ccc2c(c1)cc([nH]2)c3ccc(cc3)S(=O)(=O)N

>  <MissingHeavyAtoms>  (172) 
0

>  <Model>  (172) 
1

>  <AltIds>  (172) 


>  <pKI>  (172) 
7.99

>  <ChemblID>  (172) 
CHEMBL3764340

>  <standardized_canonical_smiles>  (172) 
NS(=O)(=O)c1ccc(-c2cc3ccccc3[nH]2)cc1

$$$$
5G01_OE2_A_1264
     RDKit          3D

 21 21  0  0  0  0  0  0  0  0999 V2000
   18.4750    2.8180   10.1330 C   0  0  0  0  0  0  0  0  0  0  0  0
   19.4100    3.8250    9.9040 C   0  0  0  0  0  0  0  0  0  0  0  0
   16.7380    4.4190   10.0110 C   0  0  0  0  0  0  0  0  0  0  0  0
   17.1140    3.0980   10.1800 C   0  0  0  0  0  0  0  0  0  0  0  0
   18.9860    5.1310    9.7280 C   0  0  0  0  0  0  0  0  0  0  0  0
   17.6440    5.4350    9.7810 C   0  0  0  0  0  0  0  0  0  0  0  0
   16.5180    1.5590   11.8090 C   0  0  0  0  0  0  0  0  0  0  0  0
   16.2700    2.4460   13.0360 C   0  0  0  0  0  0  0  0  0  0  0  0
   16.0260    2.0440   10.4400 C   0  0  0  0  0  0  0  0  0  0  0  0
   16.9530    2.8620   15.3760 C   0  0  0  0  0  0  0  0  0  0  0  0
   15.5970    2.9040   15.9670 C   0  0  0  0  0  0  0  0  0  0  0  0
   17.1770    0.4600   12.0650 N   0  0  0  0  0  0  0  0  0  0  0  0
   16.0530    0.0040   16.1210 N   0  0  0  0  0  0  0  0  0  0  0  0
   16.9550    2.0750   14.1810 N   0  0  0  0  0  0  0  0  0  0  0  0
   15.4980    3.3940   12.9240 O   0  0  0  0  0  0  0  0  0  0  0  0
   15.9430    1.5270   18.1170 O   0  0  0  0  0  0  0  0  0  0  0  0
   13.9360    1.3360   16.7580 O   0  0  0  0  0  0  0  0  0  0  0  0
   19.8910    6.1400    9.4970 O   0  0  0  0  0  0  0  0  0  0  0  0
   17.4800   -0.4120   11.0250 O   0  0  0  0  0  0  0  0  0  0  0  0
   15.3650    1.3840   16.8200 S   0  0  0  0  0  0  0  0  0  0  0  0
   16.9990    7.2030    9.5450 Br  0  0  0  0  0  0  0  0  0  0  0  0
  2  1  2  0
  4  1  1  0
  5  2  1  0
  4  3  2  0
  6  3  1  0
  9  4  1  0
  6  5  2  0
 18  5  1  0
 21  6  1  0
  8  7  1  0
  9  7  1  0
 12  7  2  0
 14  8  1  0
 15  8  2  0
 11 10  1  0
 14 10  1  0
 20 11  1  0
 19 12  1  0
 20 13  1  0
 20 16  2  0
 20 17  2  0
A    1
C19
A    2
C18
A    3
C13
A    4
C12
A    5
C16
A    6
C14
A    7
C10
A    8
C2
A    9
C11
A   10
C4
A   11
C5
A   12
N20
A   13
N8
A   14
N3
A   15
O1
A   16
O7
A   17
O9
A   18
O17
A   19
O21
A   20
S6
A   21
BR
M  END
>  <Id>  (173) 
5G01_OE2_A_1264

>  <ChainId>  (173) 
A

>  <AsymId>  (173) 
D

>  <SeqNum>  (173) 
1264

>  <Name>  (173) 
PSAMMAPLIN C

>  <SystematicName>  (173) 
(2E)-3-(3-bromanyl-4-oxidanyl-phenyl)-2-hydroxyimino-N-(2-sulfamoylethyl)propanamide

>  <Synonyms>  (173) 


>  <Type>  (173) 
non-polymer

>  <Formula>  (173) 
C11 H14 Br N3 O5 S

>  <ObservedFormula>  (173) 
Br C11 S N3 O5

>  <MolecularWeight>  (173) 
380.215

>  <ModifiedDate>  (173) 
2016-05-20

>  <Parent>  (173) 


>  <OneLetterCode>  (173) 


>  <SubcomponentList>  (173) 


>  <AmbiguousFlag>  (173) 
N

>  <InsertionCode>  (173) 


>  <InstanceId>  (173) 
5G01_OE2_A_1264

>  <ChemCompId>  (173) 
OE2

>  <PdbId>  (173) 
5G01

>  <ResidueNumber>  (173) 
1264

>  <InChI>  (173) 
InChI=1S/C11H14BrN3O5S/c12-8-5-7(1-2-10(8)16)6-9(15-18)11(17)14-3-4-21(13,19)20/h1-2,5,16,18H,3-4,6H2,(H,14,17)(H2,13,19,20)/b15-9+

>  <InChIKey>  (173) 
LZIKVOPNIDEBQJ-OQLLNIDSSA-N

>  <SMILES>  (173) 
c1cc(c(cc1C/C(=N\O)/C(=O)NCCS(=O)(=O)N)Br)O

>  <MissingHeavyAtoms>  (173) 
0

>  <Model>  (173) 
1

>  <AltIds>  (173) 


>  <pKI>  (173) 
7.06

>  <ChemblID>  (173) 
CHEMBL3586274

>  <standardized_canonical_smiles>  (173) 
NS(=O)(=O)CCNC(=O)/C(Cc1ccc(O)c(Br)c1)=N/O

$$$$
5A6H_OE2_A_1266
     RDKit          3D

 21 21  0  0  0  0  0  0  0  0999 V2000
    1.5040    8.4610   11.5210 C   0  0  0  0  0  0  0  0  0  0  0  0
    1.6120    7.1640   11.0710 C   0  0  0  0  0  0  0  0  0  0  0  0
    3.2700    8.1370   13.0930 C   0  0  0  0  0  0  0  0  0  0  0  0
    2.3190    8.9440   12.5170 C   0  0  0  0  0  0  0  0  0  0  0  0
    2.5670    6.3560   11.6460 C   0  0  0  0  0  0  0  0  0  0  0  0
    3.3730    6.8600   12.6280 C   0  0  0  0  0  0  0  0  0  0  0  0
    3.4290   11.0050   13.3830 C   0  0  0  0  0  0  0  0  0  0  0  0
    3.7400   10.9640   14.8510 C   0  0  0  0  0  0  0  0  0  0  0  0
    2.1440   10.3560   12.9530 C   0  0  0  0  0  0  0  0  0  0  0  0
    5.3690   10.1990   16.4400 C   0  0  0  0  0  0  0  0  0  0  0  0
    6.7370    9.5970   16.4640 C   0  0  0  0  0  0  0  0  0  0  0  0
    4.2960   11.5760   12.6030 N   0  0  0  0  0  0  0  0  0  0  0  0
    8.5180    8.7560   18.3270 N   0  0  0  0  0  0  0  0  0  0  0  0
    4.9300   10.3180   15.0960 N   0  0  0  0  0  0  0  0  0  0  0  0
    2.9600   11.4550   15.6640 O   0  0  0  0  0  0  0  0  0  0  0  0
    6.2190    7.6230   17.9920 O   0  0  0  0  0  0  0  0  0  0  0  0
    6.1610    9.9230   18.9100 O   0  0  0  0  0  0  0  0  0  0  0  0
    2.7280    5.0410   11.2340 O   0  0  0  0  0  0  0  0  0  0  0  0
    3.8340   11.5020   11.2990 O   0  0  0  0  0  0  0  0  0  0  0  0
    6.8210    8.9270   18.0820 S   0  0  0  0  0  0  0  0  0  0  0  0
    4.6200    5.7630   13.3760 Br  0  0  0  0  0  0  0  0  0  0  0  0
  2  1  2  0
  4  1  1  0
  5  2  1  0
  4  3  2  0
  6  3  1  0
  9  4  1  0
  6  5  2  0
 18  5  1  0
 21  6  1  0
  8  7  1  0
  9  7  1  0
 12  7  2  0
 14  8  1  0
 15  8  2  0
 11 10  1  0
 14 10  1  0
 20 11  1  0
 19 12  1  0
 20 13  1  0
 20 16  2  0
 20 17  2  0
A    1
C19
A    2
C18
A    3
C13
A    4
C12
A    5
C16
A    6
C14
A    7
C10
A    8
C2
A    9
C11
A   10
C4
A   11
C5
A   12
N20
A   13
N8
A   14
N3
A   15
O1
A   16
O7
A   17
O9
A   18
O17
A   19
O21
A   20
S6
A   21
BR
M  END
>  <Id>  (174) 
5A6H_OE2_A_1266

>  <ChainId>  (174) 
A

>  <AsymId>  (174) 
F

>  <SeqNum>  (174) 
1266

>  <Name>  (174) 
PSAMMAPLIN C

>  <SystematicName>  (174) 
(2E)-3-(3-bromanyl-4-oxidanyl-phenyl)-2-hydroxyimino-N-(2-sulfamoylethyl)propanamide

>  <Synonyms>  (174) 


>  <Type>  (174) 
non-polymer

>  <Formula>  (174) 
C11 H14 Br N3 O5 S

>  <ObservedFormula>  (174) 
Br C11 S N3 O5

>  <MolecularWeight>  (174) 
380.215

>  <ModifiedDate>  (174) 
2016-05-20

>  <Parent>  (174) 


>  <OneLetterCode>  (174) 


>  <SubcomponentList>  (174) 


>  <AmbiguousFlag>  (174) 
N

>  <InsertionCode>  (174) 


>  <InstanceId>  (174) 
5A6H_OE2_A_1266

>  <ChemCompId>  (174) 
OE2

>  <PdbId>  (174) 
5A6H

>  <ResidueNumber>  (174) 
1266

>  <InChI>  (174) 
InChI=1S/C11H14BrN3O5S/c12-8-5-7(1-2-10(8)16)6-9(15-18)11(17)14-3-4-21(13,19)20/h1-2,5,16,18H,3-4,6H2,(H,14,17)(H2,13,19,20)/b15-9+

>  <InChIKey>  (174) 
LZIKVOPNIDEBQJ-OQLLNIDSSA-N

>  <SMILES>  (174) 
c1cc(c(cc1C/C(=N\O)/C(=O)NCCS(=O)(=O)N)Br)O

>  <MissingHeavyAtoms>  (174) 
0

>  <Model>  (174) 
1

>  <AltIds>  (174) 


>  <pKI>  (174) 
7.06

>  <ChemblID>  (174) 
CHEMBL3586274

>  <standardized_canonical_smiles>  (174) 
NS(=O)(=O)CCNC(=O)/C(Cc1ccc(O)c(Br)c1)=N/O

$$$$
5G03_OE2_A_1263
     RDKit          3D

 21 21  0  0  0  0  0  0  0  0999 V2000
   19.6620    7.6930   12.7840 C   0  0  0  0  0  0  0  0  0  0  0  0
   19.0210    8.9090   12.9110 C   0  0  0  0  0  0  0  0  0  0  0  0
   17.8470    6.6320   13.9740 C   0  0  0  0  0  0  0  0  0  0  0  0
   19.0680    6.5580   13.3170 C   0  0  0  0  0  0  0  0  0  0  0  0
   17.8040    8.9670   13.5770 C   0  0  0  0  0  0  0  0  0  0  0  0
   17.2010    7.8510   14.1210 C   0  0  0  0  0  0  0  0  0  0  0  0
   18.8760    4.4120   12.1730 C   0  0  0  0  0  0  0  0  0  0  0  0
   17.5410    3.8030   12.5450 C   0  0  0  0  0  0  0  0  0  0  0  0
   19.7210    5.2220   13.1620 C   0  0  0  0  0  0  0  0  0  0  0  0
   16.6170    2.2880   14.2310 C   0  0  0  0  0  0  0  0  0  0  0  0
   16.4820    2.5290   15.7290 C   0  0  0  0  0  0  0  0  0  0  0  0
   19.1510    4.0970   10.9490 N   0  0  0  0  0  0  0  0  0  0  0  0
   16.0050   -0.1360   16.0690 N   0  0  0  0  0  0  0  0  0  0  0  0
   17.6910    3.1110   13.6990 N   0  0  0  0  0  0  0  0  0  0  0  0
   16.5140    3.8710   11.8590 O   0  0  0  0  0  0  0  0  0  0  0  0
   15.9760    1.4270   18.0310 O   0  0  0  0  0  0  0  0  0  0  0  0
   14.1380    1.5690   16.3860 O   0  0  0  0  0  0  0  0  0  0  0  0
   17.1480   10.1780   13.7210 O   0  0  0  0  0  0  0  0  0  0  0  0
   20.3530    4.4880   10.3230 O   0  0  0  0  0  0  0  0  0  0  0  0
   15.5240    1.3170   16.6700 S   0  0  0  0  0  0  0  0  0  0  0  0
   15.5320    8.0220   15.0280 Br  0  0  0  0  0  0  0  0  0  0  0  0
  2  1  2  0
  4  1  1  0
  5  2  1  0
  4  3  2  0
  6  3  1  0
  9  4  1  0
  6  5  2  0
 18  5  1  0
 21  6  1  0
  8  7  1  0
  9  7  1  0
 12  7  2  0
 14  8  1  0
 15  8  2  0
 11 10  1  0
 14 10  1  0
 20 11  1  0
 19 12  1  0
 20 13  1  0
 20 16  2  0
 20 17  2  0
A    1
C19
A    2
C18
A    3
C13
A    4
C12
A    5
C16
A    6
C14
A    7
C10
A    8
C2
A    9
C11
A   10
C4
A   11
C5
A   12
N20
A   13
N8
A   14
N3
A   15
O1
A   16
O7
A   17
O9
A   18
O17
A   19
O21
A   20
S6
A   21
BR
M  END
>  <Id>  (175) 
5G03_OE2_A_1263

>  <ChainId>  (175) 
A

>  <AsymId>  (175) 
D

>  <SeqNum>  (175) 
1263

>  <Name>  (175) 
PSAMMAPLIN C

>  <SystematicName>  (175) 
(2E)-3-(3-bromanyl-4-oxidanyl-phenyl)-2-hydroxyimino-N-(2-sulfamoylethyl)propanamide

>  <Synonyms>  (175) 


>  <Type>  (175) 
non-polymer

>  <Formula>  (175) 
C11 H14 Br N3 O5 S

>  <ObservedFormula>  (175) 
Br C11 S N3 O5

>  <MolecularWeight>  (175) 
380.215

>  <ModifiedDate>  (175) 
2016-05-20

>  <Parent>  (175) 


>  <OneLetterCode>  (175) 


>  <SubcomponentList>  (175) 


>  <AmbiguousFlag>  (175) 
N

>  <InsertionCode>  (175) 


>  <InstanceId>  (175) 
5G03_OE2_A_1263

>  <ChemCompId>  (175) 
OE2

>  <PdbId>  (175) 
5G03

>  <ResidueNumber>  (175) 
1263

>  <InChI>  (175) 
InChI=1S/C11H14BrN3O5S/c12-8-5-7(1-2-10(8)16)6-9(15-18)11(17)14-3-4-21(13,19)20/h1-2,5,16,18H,3-4,6H2,(H,14,17)(H2,13,19,20)/b15-9+

>  <InChIKey>  (175) 
LZIKVOPNIDEBQJ-OQLLNIDSSA-N

>  <SMILES>  (175) 
c1cc(c(cc1C/C(=N\O)/C(=O)NCCS(=O)(=O)N)Br)O

>  <MissingHeavyAtoms>  (175) 
0

>  <Model>  (175) 
1

>  <AltIds>  (175) 


>  <pKI>  (175) 
7.06

>  <ChemblID>  (175) 
CHEMBL3586274

>  <standardized_canonical_smiles>  (175) 
NS(=O)(=O)CCNC(=O)/C(Cc1ccc(O)c(Br)c1)=N/O

$$$$
5NY1_9E5_A_302
     RDKit          3D

 26 28  0  0  0  0  0  0  0  0999 V2000
    2.1650   11.1330   13.0820 C   0  0  0  0  0  0  0  0  0  0  0  0
    1.0210   10.3460   13.1950 C   0  0  0  0  0  0  0  0  0  0  0  0
   -0.1240   10.3850   14.0000 C   0  0  0  0  0  0  0  0  0  0  0  0
    1.5350    7.6340   10.5670 C   0  0  0  0  0  0  0  0  0  0  0  0
   -0.8900    9.3060   13.6100 C   0  0  0  0  0  0  0  0  0  0  0  0
    0.8460    9.2300   12.3830 C   0  0  0  0  0  0  0  0  0  0  0  0
    1.7830    8.8580   11.4190 C   0  0  0  0  0  0  0  0  0  0  0  0
   -2.2000    8.8600   14.0920 C   0  0  0  0  0  0  0  0  0  0  0  0
    3.1160   10.7680   12.1280 C   0  0  0  0  0  0  0  0  0  0  0  0
   -7.3510    2.6900   16.6880 O   0  0  0  0  0  0  0  0  0  0  0  0
   -5.9160    2.6290   16.8020 S   0  0  0  0  0  0  0  0  0  0  0  0
   -5.3600    2.7570   18.1140 O   0  0  0  0  0  0  0  0  0  0  0  0
   -5.3430    1.3180   16.1000 N   0  0  0  0  0  0  0  0  0  0  0  0
   -5.3410    3.9790   15.9580 C   0  0  0  0  0  0  0  0  0  0  0  0
   -6.2000    5.0140   15.5310 C   0  0  0  0  0  0  0  0  0  0  0  0
   -5.7560    6.1280   14.8390 C   0  0  0  0  0  0  0  0  0  0  0  0
   -3.9730    4.1690   15.6710 C   0  0  0  0  0  0  0  0  0  0  0  0
   -3.5230    5.3050   14.9720 C   0  0  0  0  0  0  0  0  0  0  0  0
   -4.4210    6.3010   14.5410 C   0  0  0  0  0  0  0  0  0  0  0  0
   -4.1620    7.5580   13.7490 C   0  0  0  0  0  0  0  0  0  0  0  0
   -2.7840    7.8470   13.4520 N   0  0  0  0  0  0  0  0  0  0  0  0
   -2.7350    9.4770   15.0080 O   0  0  0  0  0  0  0  0  0  0  0  0
   -0.3390   11.4590   15.0310 C   0  0  0  0  0  0  0  0  0  0  0  0
   -0.2890    8.5930   12.6240 O   0  0  0  0  0  0  0  0  0  0  0  0
    2.9410    9.6430   11.3000 C   0  0  0  0  0  0  0  0  0  0  0  0
    4.0430    9.3460   10.3040 C   0  0  0  0  0  0  0  0  0  0  0  0
  2  1  2  0
  9  1  1  0
  3  2  1  0
  6  2  1  0
  5  3  2  0
 23  3  1  0
  7  4  1  0
  8  5  1  0
 24  5  1  0
  7  6  2  0
 24  6  1  0
 25  7  1  0
 21  8  1  0
 22  8  2  0
 25  9  2  0
 11 10  2  0
 12 11  2  0
 13 11  1  0
 14 11  1  0
 15 14  2  0
 17 14  1  0
 16 15  1  0
 19 16  2  0
 18 17  2  0
 19 18  1  0
 20 19  1  0
 21 20  1  0
 26 25  1  0
A    1
C4
A    2
C5
A    3
C6
A    4
C11
A    5
C7
A    6
C9
A    7
C10
A    8
C12
A    9
C3
A   10
O24
A   11
S22
A   12
O23
A   13
N25
A   14
C19
A   15
C18
A   16
C17
A   17
C20
A   18
C21
A   19
C16
A   20
C15
A   21
N14
A   22
O13
A   23
C26
A   24
O8
A   25
C2
A   26
C1
M  END
>  <Id>  (176) 
5NY1_9E5_A_302

>  <ChainId>  (176) 
A

>  <AsymId>  (176) 
C

>  <SeqNum>  (176) 
302

>  <Name>  (176) 
3,6,7-trimethyl-~{N}-[(4-sulfamoylphenyl)methyl]-1-benzofuran-2-carboxamide

>  <SystematicName>  (176) 
3,6,7-trimethyl-~{N}-[(4-sulfamoylphenyl)methyl]-1-benzofuran-2-carboxamide

>  <Synonyms>  (176) 


>  <Type>  (176) 
NON-POLYMER

>  <Formula>  (176) 
C19 H20 N2 O4 S

>  <ObservedFormula>  (176) 
C19 S N2 O4

>  <MolecularWeight>  (176) 
372.438

>  <ModifiedDate>  (176) 
2018-01-12

>  <Parent>  (176) 


>  <OneLetterCode>  (176) 


>  <SubcomponentList>  (176) 


>  <AmbiguousFlag>  (176) 
N

>  <InsertionCode>  (176) 


>  <InstanceId>  (176) 
5NY1_9E5_A_302

>  <ChemCompId>  (176) 
9E5

>  <PdbId>  (176) 
5NY1

>  <ResidueNumber>  (176) 
302

>  <InChI>  (176) 
InChI=1S/C19H20N2O4S/c1-11-4-9-16-13(3)18(25-17(16)12(11)2)19(22)21-10-14-5-7-15(8-6-14)26(20,23)24/h4-9H,10H2,1-3H3,(H,21,22)(H2,20,23,24)

>  <InChIKey>  (176) 
UTFNKOUSVJRLOG-UHFFFAOYSA-N

>  <SMILES>  (176) 
Cc1ccc2c(c(oc2c1C)C(=O)NCc3ccc(cc3)S(=O)(=O)N)C

>  <MissingHeavyAtoms>  (176) 
0

>  <Model>  (176) 
1

>  <AltIds>  (176) 


>  <pKI>  (176) 
6.44

>  <ChemblID>  (176) 
-

>  <standardized_canonical_smiles>  (176) 
Cc1ccc2c(C)c(C(=O)NCc3ccc(S(N)(=O)=O)cc3)oc2c1C

$$$$
4Q9Y_M3T_A_302
     RDKit          3D

  8  8  0  0  0  0  0  0  0  0999 V2000
   15.9600    4.5290   13.8660 C   0  0  0  0  0  0  0  0  0  0  0  0
   15.5160    3.7140   14.9220 C   0  0  0  0  0  0  0  0  0  0  0  0
   15.9760    2.4060   15.0330 C   0  0  0  0  0  0  0  0  0  0  0  0
   15.5290    1.5880   16.0940 C   0  0  0  0  0  0  0  0  0  0  0  0
   16.1450   -0.1610   16.2430 S   0  0  0  0  0  0  0  0  0  0  0  0
   14.6510    2.0770   17.0050 C   0  0  0  0  0  0  0  0  0  0  0  0
   14.1900    3.3910   16.8930 C   0  0  0  0  0  0  0  0  0  0  0  0
   14.6350    4.2050   15.8360 C   0  0  0  0  0  0  0  0  0  0  0  0
  2  1  1  0
  3  2  2  0
  8  2  1  0
  4  3  1  0
  5  4  1  0
  6  4  2  0
  7  6  1  0
  8  7  2  0
A    1
C7
A    2
C3
A    3
C2
A    4
C1
A    5
S1
A    6
C6
A    7
C5
A    8
C4
M  END
>  <Id>  (177) 
4Q9Y_M3T_A_302

>  <ChainId>  (177) 
A

>  <AsymId>  (177) 
C

>  <SeqNum>  (177) 
302

>  <Name>  (177) 
3-methylbenzenethiol

>  <SystematicName>  (177) 
3-methylbenzenethiol

>  <Synonyms>  (177) 


>  <Type>  (177) 
NON-POLYMER

>  <Formula>  (177) 
C7 H8 S

>  <ObservedFormula>  (177) 
C7 S

>  <MolecularWeight>  (177) 
124.203

>  <ModifiedDate>  (177) 
2015-03-06

>  <Parent>  (177) 


>  <OneLetterCode>  (177) 


>  <SubcomponentList>  (177) 


>  <AmbiguousFlag>  (177) 
N

>  <InsertionCode>  (177) 


>  <InstanceId>  (177) 
4Q9Y_M3T_A_302

>  <ChemCompId>  (177) 
M3T

>  <PdbId>  (177) 
4Q9Y

>  <ResidueNumber>  (177) 
302

>  <InChI>  (177) 
InChI=1S/C7H8S/c1-6-3-2-4-7(8)5-6/h2-5,8H,1H3

>  <InChIKey>  (177) 
WRXOZRLZDJAYDR-UHFFFAOYSA-N

>  <SMILES>  (177) 
Cc1cccc(c1)S

>  <MissingHeavyAtoms>  (177) 
0

>  <Model>  (177) 
1

>  <AltIds>  (177) 


>  <pKI>  (177) 
5.68

>  <ChemblID>  (177) 
-

>  <standardized_canonical_smiles>  (177) 
Cc1cccc(S)c1

$$$$
4Q7W_6MH_A_302
     RDKit          3D

  9  9  0  0  0  0  0  0  0  0999 V2000
   16.1330    3.6560   13.5500 C   0  0  0  0  0  0  0  0  0  0  0  0
   15.5320    3.1580   14.8250 C   0  0  0  0  0  0  0  0  0  0  0  0
   14.8650    3.9910   15.6130 C   0  0  0  0  0  0  0  0  0  0  0  0
   14.3290    3.5360   16.8090 C   0  0  0  0  0  0  0  0  0  0  0  0
   14.4970    2.2560   17.1750 C   0  0  0  0  0  0  0  0  0  0  0  0
   15.2250    1.3940   16.3680 C   0  0  0  0  0  0  0  0  0  0  0  0
   15.4860   -0.2540   16.8680 S   0  0  0  0  0  0  0  0  0  0  0  0
   15.7270    1.8270   15.2180 N   0  0  0  0  0  0  0  0  0  0  0  0
   16.4410    1.0030   14.4500 O   0  0  0  0  0  0  0  0  0  0  0  0
  2  1  1  0
  3  2  2  0
  8  2  1  0
  4  3  1  0
  5  4  2  0
  6  5  1  0
  7  6  2  0
  8  6  1  0
  9  8  1  0
A    1
C6
A    2
C5
A    3
C4
A    4
C3
A    5
C2
A    6
C1
A    7
S1
A    8
N1
A    9
O1
M  END
>  <Id>  (178) 
4Q7W_6MH_A_302

>  <ChainId>  (178) 
A

>  <AsymId>  (178) 
C

>  <SeqNum>  (178) 
302

>  <Name>  (178) 
1-hydroxy-6-methylpyridine-2(1H)-thione

>  <SystematicName>  (178) 
6-methyl-1-oxidanyl-pyridine-2-thione

>  <Synonyms>  (178) 


>  <Type>  (178) 
NON-POLYMER

>  <Formula>  (178) 
C6 H7 N O S

>  <ObservedFormula>  (178) 
C6 S N O

>  <MolecularWeight>  (178) 
141.191

>  <ModifiedDate>  (178) 
2015-03-06

>  <Parent>  (178) 


>  <OneLetterCode>  (178) 


>  <SubcomponentList>  (178) 


>  <AmbiguousFlag>  (178) 
N

>  <InsertionCode>  (178) 


>  <InstanceId>  (178) 
4Q7W_6MH_A_302

>  <ChemCompId>  (178) 
6MH

>  <PdbId>  (178) 
4Q7W

>  <ResidueNumber>  (178) 
302

>  <InChI>  (178) 
InChI=1S/C6H7NOS/c1-5-3-2-4-6(9)7(5)8/h2-4,8H,1H3

>  <InChIKey>  (178) 
KVLOEFKBTCCASR-UHFFFAOYSA-N

>  <SMILES>  (178) 
CC1=CC=CC(=S)N1O

>  <MissingHeavyAtoms>  (178) 
0

>  <Model>  (178) 
1

>  <AltIds>  (178) 


>  <pKI>  (178) 
2.64

>  <ChemblID>  (178) 
-

>  <standardized_canonical_smiles>  (178) 
Cc1cccc(=S)n1O

$$$$
1ZE8_PIU_A_1
     RDKit          3D

 21 22  0  0  0  0  0  0  0  0999 V2000
   -5.9260    1.0470   16.7310 S   0  0  0  0  0  0  0  0  0  0  0  0
   -5.3180    1.1370   18.0510 O   0  0  0  0  0  0  0  0  0  0  0  0
   -7.3600    0.9510   16.6220 O   0  0  0  0  0  0  0  0  0  0  0  0
   -5.3200   -0.2510   16.0540 N   0  0  0  0  0  0  0  0  0  0  0  0
   -5.8730    4.8280   15.0170 C   0  0  0  0  0  0  0  0  0  0  0  0
   -3.6230    3.8390   14.6280 C   0  0  0  0  0  0  0  0  0  0  0  0
   -4.0530    2.6260   15.2880 C   0  0  0  0  0  0  0  0  0  0  0  0
   -6.2930    3.6320   15.6680 C   0  0  0  0  0  0  0  0  0  0  0  0
   -4.5470    4.9360   14.4970 C   0  0  0  0  0  0  0  0  0  0  0  0
   -5.3920    2.5250   15.8040 C   0  0  0  0  0  0  0  0  0  0  0  0
   -4.1220    6.2180   13.8160 C   0  0  0  0  0  0  0  0  0  0  0  0
   -4.6140    6.3900   12.3810 C   0  0  0  0  0  0  0  0  0  0  0  0
   -4.6250    7.8330   11.9070 N   0  0  0  0  0  0  0  0  0  0  0  0
   -3.4390    9.8460   11.0770 C   0  0  0  0  0  0  0  0  0  0  0  0
   -5.9160    9.8620   11.3380 C   0  0  0  0  0  0  0  0  0  0  0  0
   -5.8850    8.5230   11.8050 C   0  0  0  0  0  0  0  0  0  0  0  0
   -3.3930    8.5010   11.5400 C   0  0  0  0  0  0  0  0  0  0  0  0
   -4.6990   10.5110   10.9830 C   0  0  0  0  0  0  0  0  0  0  0  0
   -4.7510   11.9400   10.5330 C   0  0  0  0  0  0  0  0  0  0  0  0
   -1.9930    7.9110   11.5970 C   0  0  0  0  0  0  0  0  0  0  0  0
   -7.2290    7.9440   12.1830 C   0  0  0  0  0  0  0  0  0  0  0  0
  2  1  2  0
  3  1  2  0
  4  1  1  0
 10  1  1  0
  8  5  2  0
  9  5  1  0
  7  6  1  0
  9  6  2  0
 10  7  2  0
 10  8  1  0
 11  9  1  0
 12 11  1  0
 13 12  1  0
 16 13  2  0
 17 13  1  0
 17 14  2  0
 18 14  1  0
 16 15  1  0
 18 15  2  0
 21 16  1  0
 20 17  1  0
 19 18  1  0
M  CHG  1  13   1
A    1
S1
A    2
O1
A    3
O2
A    4
N1
A    5
C1
A    6
C3
A    7
C4
A    8
C6
A    9
C2
A   10
C5
A   11
C15
A   12
C16
A   13
N2
A   14
C7
A   15
C9
A   16
C10
A   17
C11
A   18
C8
A   19
C12
A   20
C13
A   21
C14
M  END
>  <Id>  (179) 
1ZE8_PIU_A_1

>  <ChainId>  (179) 
A

>  <AsymId>  (179) 
D

>  <SeqNum>  (179) 
1

>  <Name>  (179) 
1-{2-[4-(AMINOSULFONYL)PHENYL]ETHYL}-2,4,6-TRIMETHYLPYRIDINIUM

>  <SystematicName>  (179) 
4-[2-(2,4,6-trimethylpyridin-1-ium-1-yl)ethyl]benzenesulfonamide

>  <Synonyms>  (179) 
1-N-(4-SULFAMOYLPHENYL-ETHYL)-2,4,6-TRIMETHYLPYRIDINIUM

>  <Type>  (179) 
NON-POLYMER

>  <Formula>  (179) 
C16 H21 N2 O2 S

>  <ObservedFormula>  (179) 
S C16 N2 O2

>  <MolecularWeight>  (179) 
305.415

>  <ModifiedDate>  (179) 
2011-06-04

>  <Parent>  (179) 


>  <OneLetterCode>  (179) 


>  <SubcomponentList>  (179) 


>  <AmbiguousFlag>  (179) 
N

>  <InsertionCode>  (179) 


>  <InstanceId>  (179) 
1ZE8_PIU_A_1

>  <ChemCompId>  (179) 
PIU

>  <PdbId>  (179) 
1ZE8

>  <ResidueNumber>  (179) 
1

>  <InChI>  (179) 
InChI=1S/C16H21N2O2S/c1-12-10-13(2)18(14(3)11-12)9-8-15-4-6-16(7-5-15)21(17,19)20/h4-7,10-11H,8-9H2,1-3H3,(H2,17,19,20)/q+1

>  <InChIKey>  (179) 
UXBCHTZINZNVRG-UHFFFAOYSA-N

>  <SMILES>  (179) 
Cc1cc([n+](c(c1)C)CCc2ccc(cc2)S(=O)(=O)N)C

>  <MissingHeavyAtoms>  (179) 
0

>  <Model>  (179) 
1

>  <AltIds>  (179) 


>  <pKI>  (179) 
7.68

>  <ChemblID>  (179) 
-

>  <standardized_canonical_smiles>  (179) 
Cc1cc(C)[n+](CCc2ccc(S(N)(=O)=O)cc2)c(C)c1

$$$$
3EFT_3BS_A_300
     RDKit          3D

 26 27  0  0  0  0  0  0  0  0999 V2000
   -2.4490    9.4920   12.1110 C   0  0  0  0  0  0  0  0  0  0  0  0
   -1.6850   10.7440   12.5470 C   0  0  0  0  0  0  0  0  0  0  0  0
   -1.7800   10.9200   14.0640 C   0  0  0  0  0  0  0  0  0  0  0  0
   -2.2490   11.9770   11.8380 C   0  0  0  0  0  0  0  0  0  0  0  0
   -0.2710   10.5930   12.1730 N   0  0  0  0  0  0  0  0  0  0  0  0
   -0.1700   10.3440   10.7380 O   0  0  0  0  0  0  0  0  0  0  0  0
    0.3310    9.4710   12.9090 C   0  0  0  0  0  0  0  0  0  0  0  0
    0.1430    9.7060   14.4100 C   0  0  0  0  0  0  0  0  0  0  0  0
    1.8210    9.4060   12.5700 C   0  0  0  0  0  0  0  0  0  0  0  0
   -0.3620    8.1740   12.4870 C   0  0  0  0  0  0  0  0  0  0  0  0
   -1.8550    8.2650   12.8060 C   0  0  0  0  0  0  0  0  0  0  0  0
   -2.5350    7.0530   12.3270 N   0  0  0  0  0  0  0  0  0  0  0  0
   -3.0170    6.1730   13.2000 C   0  0  0  0  0  0  0  0  0  0  0  0
   -2.8450    6.4540   14.8880 S   0  0  0  0  0  0  0  0  0  0  0  0
   -3.6320    5.0760   12.7680 N   0  0  0  0  0  0  0  0  0  0  0  0
   -4.1130    4.1960   13.6420 C   0  0  0  0  0  0  0  0  0  0  0  0
   -5.4070    4.3380   14.1300 C   0  0  0  0  0  0  0  0  0  0  0  0
   -5.9110    3.4200   15.0430 C   0  0  0  0  0  0  0  0  0  0  0  0
   -6.3910    5.6590   13.6000 Cl  0  0  0  0  0  0  0  0  0  0  0  0
   -3.3230    3.1360   14.0680 C   0  0  0  0  0  0  0  0  0  0  0  0
   -3.8260    2.2170   14.9820 C   0  0  0  0  0  0  0  0  0  0  0  0
   -5.1200    2.3590   15.4690 C   0  0  0  0  0  0  0  0  0  0  0  0
   -5.7530    1.2020   16.6190 S   0  0  0  0  0  0  0  0  0  0  0  0
   -7.2520    1.2570   16.6100 O   0  0  0  0  0  0  0  0  0  0  0  0
   -5.2490    1.5340   17.9920 O   0  0  0  0  0  0  0  0  0  0  0  0
   -5.2620   -0.2970   16.2090 N   0  0  0  0  0  0  0  0  0  0  0  0
  2  1  1  0
 11  1  1  0
  3  2  1  0
  4  2  1  0
  5  2  1  0
  6  5  1  0
  7  5  1  0
  8  7  1  0
  9  7  1  0
 10  7  1  0
 11 10  1  0
 12 11  1  0
 13 12  1  0
 14 13  2  0
 15 13  1  0
 16 15  1  0
 17 16  2  0
 20 16  1  0
 18 17  1  0
 19 17  1  0
 22 18  2  0
 21 20  2  0
 22 21  1  0
 23 22  1  0
 24 23  2  0
 25 23  2  0
 26 23  1  0
A    1
CAQ
A    2
CAR
A    3
CAS
A    4
CAH
A    5
NAX
A    6
OAY
A    7
CAW
A    8
CAV
A    9
CAZ
A   10
CAU
A   11
CAP
A   12
NAO
A   13
CAN
A   14
SAT
A   15
NAM
A   16
CAL
A   17
CAF
A   18
CAE
A   19
CLAG
A   20
CAK
A   21
CAJ
A   22
CAD
A   23
SAC
A   24
OAI
A   25
OAA
A   26
NAB
M  END
>  <Id>  (180) 
3EFT_3BS_A_300

>  <ChainId>  (180) 
A

>  <AsymId>  (180) 
D

>  <SeqNum>  (180) 
300

>  <Name>  (180) 
3-chloro-4-{[(1-hydroxy-2,2,6,6-tetramethylpiperidin-4-yl)carbamothioyl]amino}benzenesulfonamide

>  <SystematicName>  (180) 
3-(2-chloro-4-sulfamoyl-phenyl)-1-(1-hydroxy-2,2,6,6-tetramethyl-piperidin-4-yl)thiourea

>  <Synonyms>  (180) 
(4-{[(2-chloro-4-sulfamoylphenyl)carbamothioyl]amino}-2,2,6,6-tetramethylpiperidin-1-yl)oxidanyl

>  <Type>  (180) 
NON-POLYMER

>  <Formula>  (180) 
C16 H25 Cl N4 O3 S2

>  <ObservedFormula>  (180) 
C16 S2 Cl N4 O3

>  <MolecularWeight>  (180) 
420.978

>  <ModifiedDate>  (180) 
2011-06-04

>  <Parent>  (180) 


>  <OneLetterCode>  (180) 


>  <SubcomponentList>  (180) 


>  <AmbiguousFlag>  (180) 
N

>  <InsertionCode>  (180) 


>  <InstanceId>  (180) 
3EFT_3BS_A_300

>  <ChemCompId>  (180) 
3BS

>  <PdbId>  (180) 
3EFT

>  <ResidueNumber>  (180) 
300

>  <InChI>  (180) 
InChI=1S/C16H25ClN4O3S2/c1-15(2)8-10(9-16(3,4)21(15)22)19-14(25)20-13-6-5-11(7-12(13)17)26(18,23)24/h5-7,10,22H,8-9H2,1-4H3,(H2,18,23,24)(H2,19,20,25)

>  <InChIKey>  (180) 
WDEYGBCTTZKGRI-UHFFFAOYSA-N

>  <SMILES>  (180) 
CC1(CC(CC(N1O)(C)C)NC(=S)Nc2ccc(cc2Cl)S(=O)(=O)N)C

>  <MissingHeavyAtoms>  (180) 
0

>  <Model>  (180) 
1

>  <AltIds>  (180) 


>  <pKI>  (180) 
7.92

>  <ChemblID>  (180) 
-

>  <standardized_canonical_smiles>  (180) 
CC1(C)CC(NC(=S)Nc2ccc(S(N)(=O)=O)cc2Cl)CC(C)(C)N1O

$$$$
4Q81_7MH_A_303
     RDKit          3D

 10 10  0  0  0  0  0  0  0  0999 V2000
   17.0950    1.3910   12.4500 C   0  0  0  0  0  0  0  0  0  0  0  0
   16.3690    1.8500   13.6830 C   0  0  0  0  0  0  0  0  0  0  0  0
   15.9930    3.1580   13.8090 C   0  0  0  0  0  0  0  0  0  0  0  0
   15.3690    3.5910   14.9640 C   0  0  0  0  0  0  0  0  0  0  0  0
   14.9470    5.0430   15.1000 C   0  0  0  0  0  0  0  0  0  0  0  0
   15.0720    2.6980   15.9530 C   0  0  0  0  0  0  0  0  0  0  0  0
   15.4410    1.3790   15.8200 C   0  0  0  0  0  0  0  0  0  0  0  0
   15.0650    0.2340   17.0870 S   0  0  0  0  0  0  0  0  0  0  0  0
   16.1420    0.9710   14.7110 N   0  0  0  0  0  0  0  0  0  0  0  0
   16.5470   -0.3030   14.6050 O   0  0  0  0  0  0  0  0  0  0  0  0
  2  1  1  0
  3  2  2  0
  9  2  1  0
  4  3  1  0
  5  4  1  0
  6  4  2  0
  7  6  1  0
  8  7  2  0
  9  7  1  0
 10  9  1  0
A    1
C7
A    2
C5
A    3
C4
A    4
C3
A    5
C6
A    6
C2
A    7
C1
A    8
S1
A    9
N1
A   10
O1
M  END
>  <Id>  (181) 
4Q81_7MH_A_303

>  <ChainId>  (181) 
A

>  <AsymId>  (181) 
D

>  <SeqNum>  (181) 
303

>  <Name>  (181) 
1-hydroxy-4,6-dimethylpyridine-2(1H)-thione

>  <SystematicName>  (181) 
4,6-dimethyl-1-oxidanyl-pyridine-2-thione

>  <Synonyms>  (181) 


>  <Type>  (181) 
NON-POLYMER

>  <Formula>  (181) 
C7 H9 N O S

>  <ObservedFormula>  (181) 
C7 S N O

>  <MolecularWeight>  (181) 
155.217

>  <ModifiedDate>  (181) 
2015-03-06

>  <Parent>  (181) 


>  <OneLetterCode>  (181) 


>  <SubcomponentList>  (181) 


>  <AmbiguousFlag>  (181) 
N

>  <InsertionCode>  (181) 


>  <InstanceId>  (181) 
4Q81_7MH_A_303

>  <ChemCompId>  (181) 
7MH

>  <PdbId>  (181) 
4Q81

>  <ResidueNumber>  (181) 
303

>  <InChI>  (181) 
InChI=1S/C7H9NOS/c1-5-3-6(2)8(9)7(10)4-5/h3-4,9H,1-2H3

>  <InChIKey>  (181) 
OZNBIIYHOPDSLX-UHFFFAOYSA-N

>  <SMILES>  (181) 
CC1=CC(=S)N(C(=C1)C)O

>  <MissingHeavyAtoms>  (181) 
0

>  <Model>  (181) 
1

>  <AltIds>  (181) 


>  <pKI>  (181) 
3.02

>  <ChemblID>  (181) 
-

>  <standardized_canonical_smiles>  (181) 
Cc1cc(C)n(O)c(=S)c1

$$$$
4Q99_HT4_A_302
     RDKit          3D

  9  9  0  0  0  0  0  0  0  0999 V2000
   14.2140    1.3660   17.9220 O   0  0  0  0  0  0  0  0  0  0  0  0
   14.6730    2.1440   16.8880 C   0  0  0  0  0  0  0  0  0  0  0  0
   14.2480    3.4300   16.7120 C   0  0  0  0  0  0  0  0  0  0  0  0
   14.7470    4.1880   15.6350 C   0  0  0  0  0  0  0  0  0  0  0  0
   15.6610    3.6250   14.7680 C   0  0  0  0  0  0  0  0  0  0  0  0
   16.1610    4.3690   13.6980 C   0  0  0  0  0  0  0  0  0  0  0  0
   16.0900    2.2900   14.9670 C   0  0  0  0  0  0  0  0  0  0  0  0
   15.5890    1.5620   16.0280 C   0  0  0  0  0  0  0  0  0  0  0  0
   16.1330   -0.1570   16.2950 S   0  0  0  0  0  0  0  0  0  0  0  0
  2  1  1  0
  3  2  2  0
  8  2  1  0
  4  3  1  0
  5  4  2  0
  6  5  1  0
  7  5  1  0
  8  7  2  0
  9  8  1  0
A    1
O1
A    2
C1
A    3
C6
A    4
C5
A    5
C4
A    6
C7
A    7
C3
A    8
C2
A    9
S1
M  END
>  <Id>  (182) 
4Q99_HT4_A_302

>  <ChainId>  (182) 
A

>  <AsymId>  (182) 
C

>  <SeqNum>  (182) 
302

>  <Name>  (182) 
4-methyl-2-sulfanylphenol

>  <SystematicName>  (182) 
4-methyl-2-sulfanyl-phenol

>  <Synonyms>  (182) 


>  <Type>  (182) 
NON-POLYMER

>  <Formula>  (182) 
C7 H8 O S

>  <ObservedFormula>  (182) 
C7 S O

>  <MolecularWeight>  (182) 
140.203

>  <ModifiedDate>  (182) 
2015-03-06

>  <Parent>  (182) 


>  <OneLetterCode>  (182) 


>  <SubcomponentList>  (182) 


>  <AmbiguousFlag>  (182) 
N

>  <InsertionCode>  (182) 


>  <InstanceId>  (182) 
4Q99_HT4_A_302

>  <ChemCompId>  (182) 
HT4

>  <PdbId>  (182) 
4Q99

>  <ResidueNumber>  (182) 
302

>  <InChI>  (182) 
InChI=1S/C7H8OS/c1-5-2-3-6(8)7(9)4-5/h2-4,8-9H,1H3

>  <InChIKey>  (182) 
GWMWXFGQYATKBA-UHFFFAOYSA-N

>  <SMILES>  (182) 
Cc1ccc(c(c1)S)O

>  <MissingHeavyAtoms>  (182) 
0

>  <Model>  (182) 
1

>  <AltIds>  (182) 


>  <pKI>  (182) 
4.28

>  <ChemblID>  (182) 
-

>  <standardized_canonical_smiles>  (182) 
Cc1ccc(O)c(S)c1

$$$$
4Q7V_5MH_A_302
     RDKit          3D

  9  9  0  0  0  0  0  0  0  0999 V2000
   14.8660    0.0320   17.0700 S   0  0  0  0  0  0  0  0  0  0  0  0
   15.2540    1.3380   16.0150 C   0  0  0  0  0  0  0  0  0  0  0  0
   14.7020    2.6210   16.2450 C   0  0  0  0  0  0  0  0  0  0  0  0
   15.0050    3.6400   15.4210 C   0  0  0  0  0  0  0  0  0  0  0  0
   15.8480    3.4370   14.3600 C   0  0  0  0  0  0  0  0  0  0  0  0
   16.1850    4.5740   13.4430 C   0  0  0  0  0  0  0  0  0  0  0  0
   16.3890    2.1810   14.1350 C   0  0  0  0  0  0  0  0  0  0  0  0
   16.0790    1.1380   14.9780 N   0  0  0  0  0  0  0  0  0  0  0  0
   16.6100   -0.0970   14.7580 O   0  0  0  0  0  0  0  0  0  0  0  0
  2  1  2  0
  3  2  1  0
  8  2  1  0
  4  3  2  0
  5  4  1  0
  6  5  1  0
  7  5  2  0
  8  7  1  0
  9  8  1  0
A    1
S1
A    2
C1
A    3
C2
A    4
C3
A    5
C4
A    6
C6
A    7
C5
A    8
N1
A    9
O1
M  END
>  <Id>  (183) 
4Q7V_5MH_A_302

>  <ChainId>  (183) 
A

>  <AsymId>  (183) 
C

>  <SeqNum>  (183) 
302

>  <Name>  (183) 
1-hydroxy-5-methylpyridine-2(1H)-thione

>  <SystematicName>  (183) 
5-methyl-1-oxidanyl-pyridine-2-thione

>  <Synonyms>  (183) 


>  <Type>  (183) 
NON-POLYMER

>  <Formula>  (183) 
C6 H7 N O S

>  <ObservedFormula>  (183) 
S C6 N O

>  <MolecularWeight>  (183) 
141.191

>  <ModifiedDate>  (183) 
2015-03-06

>  <Parent>  (183) 


>  <OneLetterCode>  (183) 


>  <SubcomponentList>  (183) 


>  <AmbiguousFlag>  (183) 
N

>  <InsertionCode>  (183) 


>  <InstanceId>  (183) 
4Q7V_5MH_A_302

>  <ChemCompId>  (183) 
5MH

>  <PdbId>  (183) 
4Q7V

>  <ResidueNumber>  (183) 
302

>  <InChI>  (183) 
InChI=1S/C6H7NOS/c1-5-2-3-6(9)7(8)4-5/h2-4,8H,1H3

>  <InChIKey>  (183) 
NYCMWBOOSPXSNB-UHFFFAOYSA-N

>  <SMILES>  (183) 
CC1=CN(C(=S)C=C1)O

>  <MissingHeavyAtoms>  (183) 
0

>  <Model>  (183) 
1

>  <AltIds>  (183) 


>  <pKI>  (183) 
3.59

>  <ChemblID>  (183) 
-

>  <standardized_canonical_smiles>  (183) 
Cc1ccc(=S)n(O)c1

$$$$
5NXV_9E2_A_302
     RDKit          3D

 24 25  0  0  0  0  0  0  0  0999 V2000
   -3.8910    4.2280   15.6950 C   0  0  0  0  0  0  0  0  0  0  0  0
   -2.3040    8.6080   12.3650 C   0  0  0  0  0  0  0  0  0  0  0  0
   -6.1380    4.9310   15.4140 C   0  0  0  0  0  0  0  0  0  0  0  0
   -5.7090    6.0590   14.7240 C   0  0  0  0  0  0  0  0  0  0  0  0
   -4.3530    6.2780   14.5210 C   0  0  0  0  0  0  0  0  0  0  0  0
   -2.6440    7.7870   13.5920 C   0  0  0  0  0  0  0  0  0  0  0  0
   -5.2790    1.2840   16.0190 N   0  0  0  0  0  0  0  0  0  0  0  0
   -2.0020   10.8830   13.3030 C   0  0  0  0  0  0  0  0  0  0  0  0
   -3.0810   10.8260   11.3520 N   0  0  0  0  0  0  0  0  0  0  0  0
   -3.9490    7.4410   13.8380 N   0  0  0  0  0  0  0  0  0  0  0  0
   -1.9590   13.5390   13.9000 Cl  0  0  0  0  0  0  0  0  0  0  0  0
   -2.3240   12.1420   12.9450 C   0  0  0  0  0  0  0  0  0  0  0  0
   -2.9970   12.0770   11.7130 C   0  0  0  0  0  0  0  0  0  0  0  0
   -3.5460   13.2100   10.9570 N   0  0  0  0  0  0  0  0  0  0  0  0
   -3.7050   13.0840    9.7530 O   0  0  0  0  0  0  0  0  0  0  0  0
   -3.8460   14.2450   11.5370 O   0  0  0  0  0  0  0  0  0  0  0  0
   -2.4700   10.0580   12.3550 N   0  0  0  0  0  0  0  0  0  0  0  0
   -1.2790   10.4490   14.5520 C   0  0  0  0  0  0  0  0  0  0  0  0
   -1.6980    7.3160   14.2250 O   0  0  0  0  0  0  0  0  0  0  0  0
   -3.4470    5.3560   15.0100 C   0  0  0  0  0  0  0  0  0  0  0  0
   -5.2420    4.0120   15.9080 C   0  0  0  0  0  0  0  0  0  0  0  0
   -5.8590    2.6040   16.7610 S   0  0  0  0  0  0  0  0  0  0  0  0
   -7.2760    2.6870   16.5730 O   0  0  0  0  0  0  0  0  0  0  0  0
   -5.3610    2.6840   18.0670 O   0  0  0  0  0  0  0  0  0  0  0  0
 20  1  2  0
 21  1  1  0
  6  2  1  0
 17  2  1  0
  4  3  1  0
 21  3  2  0
  5  4  2  0
 10  5  1  0
 20  5  1  0
 10  6  1  0
 19  6  2  0
 22  7  1  0
 12  8  2  0
 17  8  1  0
 18  8  1  0
 13  9  2  0
 17  9  1  0
 12 11  1  0
 13 12  1  0
 14 13  1  0
 15 14  1  0
 16 14  2  0
 22 21  1  0
 23 22  2  0
 24 22  2  0
M  CHG  2  14   1  15  -1
A    1
C11
A    2
C5
A    3
C9
A    4
C8
A    5
C7
A    6
C6
A    7
N4
A    8
C2
A    9
N1
A   10
N3
A   11
CL1
A   12
C3
A   13
C4
A   14
N5
A   15
O5
A   16
O4
A   17
N2
A   18
C1
A   19
O1
A   20
C12
A   21
C10
A   22
S1
A   23
O3
A   24
O2
M  END
>  <Id>  (184) 
5NXV_9E2_A_302

>  <ChainId>  (184) 
A

>  <AsymId>  (184) 
C

>  <SeqNum>  (184) 
302

>  <Name>  (184) 
2-(4-chloranyl-5-methyl-3-nitro-pyrazol-1-yl)-~{N}-(4-sulfamoylphenyl)ethanamide

>  <SystematicName>  (184) 
2-(4-chloranyl-5-methyl-3-nitro-pyrazol-1-yl)-~{N}-(4-sulfamoylphenyl)ethanamide

>  <Synonyms>  (184) 


>  <Type>  (184) 
NON-POLYMER

>  <Formula>  (184) 
C12 H12 Cl N5 O5 S

>  <ObservedFormula>  (184) 
C12 S Cl N5 O5

>  <MolecularWeight>  (184) 
373.772

>  <ModifiedDate>  (184) 
2018-01-12

>  <Parent>  (184) 


>  <OneLetterCode>  (184) 


>  <SubcomponentList>  (184) 


>  <AmbiguousFlag>  (184) 
N

>  <InsertionCode>  (184) 


>  <InstanceId>  (184) 
5NXV_9E2_A_302

>  <ChemCompId>  (184) 
9E2

>  <PdbId>  (184) 
5NXV

>  <ResidueNumber>  (184) 
302

>  <InChI>  (184) 
InChI=1S/C12H12ClN5O5S/c1-7-11(13)12(18(20)21)16-17(7)6-10(19)15-8-2-4-9(5-3-8)24(14,22)23/h2-5H,6H2,1H3,(H,15,19)(H2,14,22,23)

>  <InChIKey>  (184) 
NLLZIDRHMVNNIO-UHFFFAOYSA-N

>  <SMILES>  (184) 
Cc1c(c(nn1CC(=O)Nc2ccc(cc2)S(=O)(=O)N)[N+](=O)[O-])Cl

>  <MissingHeavyAtoms>  (184) 
0

>  <Model>  (184) 
1

>  <AltIds>  (184) 


>  <pKI>  (184) 
8.4

>  <ChemblID>  (184) 
-

>  <standardized_canonical_smiles>  (184) 
Cc1c(Cl)c([N+](=O)[O-])nn1CC(=O)Nc1ccc(S(N)(=O)=O)cc1

$$$$
6EEO_J6V_A_302
     RDKit          3D

 26 27  0  0  0  0  0  0  0  0999 V2000
   -3.9100    8.9360   13.6370 C   0  0  0  0  0  0  0  0  0  0  0  0
   -2.5110   10.7220   14.3050 C   0  0  0  0  0  0  0  0  0  0  0  0
   -1.6840    8.4520   14.3910 C   0  0  0  0  0  0  0  0  0  0  0  0
   -1.4880    9.8160   14.5840 C   0  0  0  0  0  0  0  0  0  0  0  0
   -4.5020    0.7160   13.6640 C   0  0  0  0  0  0  0  0  0  0  0  0
   -4.2560    1.3150   12.4390 C   0  0  0  0  0  0  0  0  0  0  0  0
   -4.3760    2.7180   12.2980 C   0  0  0  0  0  0  0  0  0  0  0  0
   -4.6980    3.4570   13.4470 C   0  0  0  0  0  0  0  0  0  0  0  0
   -4.9630    2.8480   14.6040 C   0  0  0  0  0  0  0  0  0  0  0  0
   -4.8320    1.5300   14.7210 C   0  0  0  0  0  0  0  0  0  0  0  0
   -4.1290    3.3430   11.0680 O   0  0  0  0  0  0  0  0  0  0  0  0
   -5.0260    4.8040   13.8070 N   0  0  0  0  0  0  0  0  0  0  0  0
   -4.5060    6.1110   14.0250 C   0  0  0  0  0  0  0  0  0  0  0  0
   -3.1810    6.5930   13.6880 N   0  0  0  0  0  0  0  0  0  0  0  0
   -5.3440    6.8130   14.4790 O   0  0  0  0  0  0  0  0  0  0  0  0
   -2.9120    8.0080   13.9260 C   0  0  0  0  0  0  0  0  0  0  0  0
   -3.7310   10.2840   13.8370 C   0  0  0  0  0  0  0  0  0  0  0  0
   -0.1410   10.3280   15.1050 C   0  0  0  0  0  0  0  0  0  0  0  0
   -2.3280   12.0600   14.4880 F   0  0  0  0  0  0  0  0  0  0  0  0
   -5.2520    1.0220   16.3790 S   0  0  0  0  0  0  0  0  0  0  0  0
   -4.4420    1.6140   17.4390 O   0  0  0  0  0  0  0  0  0  0  0  0
   -6.6220    1.4160   16.6870 O   0  0  0  0  0  0  0  0  0  0  0  0
   -5.0270   -0.6510   16.3790 N   0  0  0  0  0  0  0  0  0  0  0  0
   -3.9280    0.3770   11.3750 N   0  0  0  0  0  0  0  0  0  0  0  0
   -3.5540   -0.7100   11.6460 O   0  0  0  0  0  0  0  0  0  0  0  0
   -4.1640    0.7080   10.0360 O   0  0  0  0  0  0  0  0  0  0  0  0
 16  1  2  0
 17  1  1  0
  4  2  1  0
 17  2  2  0
 19  2  1  0
  4  3  2  0
 16  3  1  0
 18  4  1  0
  6  5  2  0
 10  5  1  0
  7  6  1  0
 24  6  1  0
  8  7  2  0
 11  7  1  0
  9  8  1  0
 12  8  1  0
 10  9  2  0
 20 10  1  0
 13 12  1  0
 14 13  1  0
 15 13  2  0
 16 14  1  0
 21 20  2  0
 22 20  2  0
 23 20  1  0
 25 24  1  0
 26 24  2  0
M  CHG  2  24   1  25  -1
A    1
C13
A    2
C15
A    3
C17
A    4
C16
A    5
C01
A    6
C02
A    7
C03
A    8
C04
A    9
C05
A   10
C06
A   11
O07
A   12
N08
A   13
C09
A   14
N10
A   15
O11
A   16
C12
A   17
C14
A   18
C18
A   19
F19
A   20
S20
A   21
O21
A   22
O22
A   23
N23
A   24
N24
A   25
O25
A   26
O26
M  END
>  <Id>  (185) 
6EEO_J6V_A_302

>  <ChainId>  (185) 
A

>  <AsymId>  (185) 
C

>  <SeqNum>  (185) 
302

>  <Name>  (185) 
3-{[(4-fluoro-3-methylphenyl)carbamoyl]amino}-4-hydroxy-5-nitrobenzene-1-sulfonamide

>  <SystematicName>  (185) 
1-(4-fluoranyl-3-methyl-phenyl)-3-(3-nitro-2-oxidanyl-5-sulfamoyl-phenyl)urea

>  <Synonyms>  (185) 


>  <Type>  (185) 
NON-POLYMER

>  <Formula>  (185) 
C14 H13 F N4 O6 S

>  <ObservedFormula>  (185) 
C14 S F N4 O6

>  <MolecularWeight>  (185) 
384.34

>  <ModifiedDate>  (185) 
2018-11-23

>  <Parent>  (185) 


>  <OneLetterCode>  (185) 


>  <SubcomponentList>  (185) 


>  <AmbiguousFlag>  (185) 
N

>  <InsertionCode>  (185) 


>  <InstanceId>  (185) 
6EEO_J6V_A_302

>  <ChemCompId>  (185) 
J6V

>  <PdbId>  (185) 
6EEO

>  <ResidueNumber>  (185) 
302

>  <InChI>  (185) 
InChI=1S/C14H13FN4O6S/c1-7-4-8(2-3-10(7)15)17-14(21)18-11-5-9(26(16,24)25)6-12(13(11)20)19(22)23/h2-6,20H,1H3,(H2,16,24,25)(H2,17,18,21)

>  <InChIKey>  (185) 
NCXBXYIRLDJNEP-UHFFFAOYSA-N

>  <SMILES>  (185) 
Cc1cc(ccc1F)NC(=O)Nc2cc(cc(c2O)N(=O)=O)S(=O)(=O)N

>  <MissingHeavyAtoms>  (185) 
0

>  <Model>  (185) 
1

>  <AltIds>  (185) 


>  <pKI>  (185) 
6.43

>  <ChemblID>  (185) 
-

>  <standardized_canonical_smiles>  (185) 
Cc1cc(NC(=O)Nc2cc(S(N)(=O)=O)cc([N+](=O)[O-])c2O)ccc1F

$$$$
4Q90_4H2_A_302
     RDKit          3D

  8  8  0  0  0  0  0  0  0  0999 V2000
   14.9650    5.1160   15.3870 C   0  0  0  0  0  0  0  0  0  0  0  0
   15.4050    3.6850   15.0980 C   0  0  0  0  0  0  0  0  0  0  0  0
   15.0420    2.6320   15.9920 C   0  0  0  0  0  0  0  0  0  0  0  0
   15.4480    1.3690   15.7460 C   0  0  0  0  0  0  0  0  0  0  0  0
   15.0110    0.0610   16.8650 S   0  0  0  0  0  0  0  0  0  0  0  0
   16.2230    1.0920   14.6150 N   0  0  0  0  0  0  0  0  0  0  0  0
   16.5300    2.0980   13.7300 C   0  0  0  0  0  0  0  0  0  0  0  0
   16.1180    3.4100   13.9910 C   0  0  0  0  0  0  0  0  0  0  0  0
  2  1  1  0
  3  2  2  0
  8  2  1  0
  4  3  1  0
  5  4  2  0
  6  4  1  0
  7  6  1  0
  8  7  2  0
A    1
C6
A    2
C3
A    3
C2
A    4
C1
A    5
S1
A    6
N1
A    7
C5
A    8
C4
M  END
>  <Id>  (186) 
4Q90_4H2_A_302

>  <ChainId>  (186) 
A

>  <AsymId>  (186) 
C

>  <SeqNum>  (186) 
302

>  <Name>  (186) 
4-methylpyridine-2(1H)-thione

>  <SystematicName>  (186) 
4-methyl-1H-pyridine-2-thione

>  <Synonyms>  (186) 


>  <Type>  (186) 
NON-POLYMER

>  <Formula>  (186) 
C6 H7 N S

>  <ObservedFormula>  (186) 
C6 S N

>  <MolecularWeight>  (186) 
125.191

>  <ModifiedDate>  (186) 
2015-03-06

>  <Parent>  (186) 


>  <OneLetterCode>  (186) 


>  <SubcomponentList>  (186) 


>  <AmbiguousFlag>  (186) 
N

>  <InsertionCode>  (186) 


>  <InstanceId>  (186) 
4Q90_4H2_A_302

>  <ChemCompId>  (186) 
4H2

>  <PdbId>  (186) 
4Q90

>  <ResidueNumber>  (186) 
302

>  <InChI>  (186) 
InChI=1S/C6H7NS/c1-5-2-3-7-6(8)4-5/h2-4H,1H3,(H,7,8)

>  <InChIKey>  (186) 
KGYJCSZMSPBJFS-UHFFFAOYSA-N

>  <SMILES>  (186) 
CC1=CC(=S)NC=C1

>  <MissingHeavyAtoms>  (186) 
0

>  <Model>  (186) 
1

>  <AltIds>  (186) 


>  <pKI>  (186) 
2.15

>  <ChemblID>  (186) 
-

>  <standardized_canonical_smiles>  (186) 
Cc1cc[nH]c(=S)c1

$$$$
1MOO_4MZ_A_265
     RDKit          3D

  6  6  0  0  0  0  0  0  0  0999 V2000
   -9.0190   10.1260    7.6480 C   0  0  0  0  0  0  0  0  0  0  0  0
  -10.2930   10.7120    7.6280 N   0  0  0  0  0  0  0  0  0  0  0  0
   -9.2050    8.7450    7.6840 C   0  0  0  0  0  0  0  0  0  0  0  0
  -11.1780    9.7170    7.6800 C   0  0  0  0  0  0  0  0  0  0  0  0
  -10.5620    8.5230    7.6980 N   0  0  0  0  0  0  0  0  0  0  0  0
   -7.6230   10.8880    7.6190 C   0  0  0  0  0  0  0  0  0  0  0  0
  2  1  1  0
  3  1  2  0
  6  1  1  0
  4  2  2  0
  5  3  1  0
  5  4  1  0
A    1
CG
A    2
ND1
A    3
CD2
A    4
CE1
A    5
NE2
A    6
C4
M  END
>  <Id>  (187) 
1MOO_4MZ_A_265

>  <ChainId>  (187) 
A

>  <AsymId>  (187) 
E

>  <SeqNum>  (187) 
265

>  <Name>  (187) 
4-METHYLIMIDAZOLE

>  <SystematicName>  (187) 
4-methyl-1H-imidazole

>  <Synonyms>  (187) 


>  <Type>  (187) 
NON-POLYMER

>  <Formula>  (187) 
C4 H6 N2

>  <ObservedFormula>  (187) 
C4 N2

>  <MolecularWeight>  (187) 
82.104

>  <ModifiedDate>  (187) 
2011-06-04

>  <Parent>  (187) 


>  <OneLetterCode>  (187) 


>  <SubcomponentList>  (187) 


>  <AmbiguousFlag>  (187) 
N

>  <InsertionCode>  (187) 


>  <InstanceId>  (187) 
1MOO_4MZ_A_265

>  <ChemCompId>  (187) 
4MZ

>  <PdbId>  (187) 
1MOO

>  <ResidueNumber>  (187) 
265

>  <InChI>  (187) 
InChI=1S/C4H6N2/c1-4-2-5-3-6-4/h2-3H,1H3,(H,5,6)

>  <InChIKey>  (187) 
XLSZMDLNRCVEIJ-UHFFFAOYSA-N

>  <SMILES>  (187) 
Cc1c[nH]cn1

>  <MissingHeavyAtoms>  (187) 
0

>  <Model>  (187) 
1

>  <AltIds>  (187) 


>  <pKI>  (187) 
0.7

>  <ChemblID>  (187) 
-

>  <standardized_canonical_smiles>  (187) 
Cc1c[nH]cn1

$$$$
1G0E_4MZ_A_264
     RDKit          3D

  6  6  0  0  0  0  0  0  0  0999 V2000
    3.3430   -0.9120    7.9310 C   0  0  0  0  0  0  0  0  0  0  0  0
    2.3310   -0.1330    7.3560 N   0  0  0  0  0  0  0  0  0  0  0  0
    4.4550   -0.0910    8.0850 C   0  0  0  0  0  0  0  0  0  0  0  0
    2.8330    1.0890    7.1850 C   0  0  0  0  0  0  0  0  0  0  0  0
    4.1050    1.1480    7.6120 N   0  0  0  0  0  0  0  0  0  0  0  0
    3.2360   -2.4440    8.3280 C   0  0  0  0  0  0  0  0  0  0  0  0
  2  1  1  0
  3  1  2  0
  6  1  1  0
  4  2  2  0
  5  3  1  0
  5  4  1  0
A    1
CG
A    2
ND1
A    3
CD2
A    4
CE1
A    5
NE2
A    6
C4
M  END
>  <Id>  (188) 
1G0E_4MZ_A_264

>  <ChainId>  (188) 
A

>  <AsymId>  (188) 
D

>  <SeqNum>  (188) 
264

>  <Name>  (188) 
4-METHYLIMIDAZOLE

>  <SystematicName>  (188) 
4-methyl-1H-imidazole

>  <Synonyms>  (188) 


>  <Type>  (188) 
NON-POLYMER

>  <Formula>  (188) 
C4 H6 N2

>  <ObservedFormula>  (188) 
C4 N2

>  <MolecularWeight>  (188) 
82.104

>  <ModifiedDate>  (188) 
2011-06-04

>  <Parent>  (188) 


>  <OneLetterCode>  (188) 


>  <SubcomponentList>  (188) 


>  <AmbiguousFlag>  (188) 
N

>  <InsertionCode>  (188) 


>  <InstanceId>  (188) 
1G0E_4MZ_A_264

>  <ChemCompId>  (188) 
4MZ

>  <PdbId>  (188) 
1G0E

>  <ResidueNumber>  (188) 
264

>  <InChI>  (188) 
InChI=1S/C4H6N2/c1-4-2-5-3-6-4/h2-3H,1H3,(H,5,6)

>  <InChIKey>  (188) 
XLSZMDLNRCVEIJ-UHFFFAOYSA-N

>  <SMILES>  (188) 
Cc1c[nH]cn1

>  <MissingHeavyAtoms>  (188) 
0

>  <Model>  (188) 
1

>  <AltIds>  (188) 


>  <pKI>  (188) 
0.7

>  <ChemblID>  (188) 
-

>  <standardized_canonical_smiles>  (188) 
Cc1c[nH]cn1

$$$$
4HEY_4MZ_A_310
     RDKit          3D

  6  6  0  0  0  0  0  0  0  0999 V2000
   -9.2200   10.3110    7.5130 C   0  0  0  0  0  0  0  0  0  0  0  0
   -9.5970   11.5950    7.6080 N   0  0  0  0  0  0  0  0  0  0  0  0
   -7.8520   10.2920    7.3810 C   0  0  0  0  0  0  0  0  0  0  0  0
   -8.4870   12.3750    7.5400 C   0  0  0  0  0  0  0  0  0  0  0  0
   -7.4180   11.5590    7.3940 N   0  0  0  0  0  0  0  0  0  0  0  0
  -10.1410    9.1340    7.5550 C   0  0  0  0  0  0  0  0  0  0  0  0
  2  1  1  0
  3  1  2  0
  6  1  1  0
  4  2  2  0
  5  3  1  0
  5  4  1  0
A    1
CG
A    2
ND1
A    3
CD2
A    4
CE1
A    5
NE2
A    6
C4
M  END
>  <Id>  (189) 
4HEY_4MZ_A_310

>  <ChainId>  (189) 
A

>  <AsymId>  (189) 
K

>  <SeqNum>  (189) 
310

>  <Name>  (189) 
4-METHYLIMIDAZOLE

>  <SystematicName>  (189) 
4-methyl-1H-imidazole

>  <Synonyms>  (189) 


>  <Type>  (189) 
NON-POLYMER

>  <Formula>  (189) 
C4 H6 N2

>  <ObservedFormula>  (189) 
C4 N2

>  <MolecularWeight>  (189) 
82.104

>  <ModifiedDate>  (189) 
2011-06-04

>  <Parent>  (189) 


>  <OneLetterCode>  (189) 


>  <SubcomponentList>  (189) 


>  <AmbiguousFlag>  (189) 
N

>  <InsertionCode>  (189) 


>  <InstanceId>  (189) 
4HEY_4MZ_A_310

>  <ChemCompId>  (189) 
4MZ

>  <PdbId>  (189) 
4HEY

>  <ResidueNumber>  (189) 
310

>  <InChI>  (189) 
InChI=1S/C4H6N2/c1-4-2-5-3-6-4/h2-3H,1H3,(H,5,6)

>  <InChIKey>  (189) 
XLSZMDLNRCVEIJ-UHFFFAOYSA-N

>  <SMILES>  (189) 
Cc1c[nH]cn1

>  <MissingHeavyAtoms>  (189) 
0

>  <Model>  (189) 
1

>  <AltIds>  (189) 


>  <pKI>  (189) 
0.7

>  <ChemblID>  (189) 
-

>  <standardized_canonical_smiles>  (189) 
Cc1c[nH]cn1

$$$$
2FNN_4MZ_A_264
     RDKit          3D

  6  6  0  0  0  0  0  0  0  0999 V2000
   -0.2730    2.7110   10.4400 C   0  0  0  0  0  0  0  0  0  0  0  0
    0.8690    3.2880    9.8690 N   0  0  0  0  0  0  0  0  0  0  0  0
    0.1490    1.9610   11.5290 C   0  0  0  0  0  0  0  0  0  0  0  0
    1.9120    2.8890   10.5980 C   0  0  0  0  0  0  0  0  0  0  0  0
    1.5150    2.0920   11.6020 N   0  0  0  0  0  0  0  0  0  0  0  0
   -1.7690    2.8840    9.9320 C   0  0  0  0  0  0  0  0  0  0  0  0
  2  1  1  0
  3  1  2  0
  6  1  1  0
  4  2  2  0
  5  3  1  0
  5  4  1  0
A    1
CG
A    2
ND1
A    3
CD2
A    4
CE1
A    5
NE2
A    6
C4
M  END
>  <Id>  (190) 
2FNN_4MZ_A_264

>  <ChainId>  (190) 
A

>  <AsymId>  (190) 
C

>  <SeqNum>  (190) 
264

>  <Name>  (190) 
4-METHYLIMIDAZOLE

>  <SystematicName>  (190) 
4-methyl-1H-imidazole

>  <Synonyms>  (190) 


>  <Type>  (190) 
NON-POLYMER

>  <Formula>  (190) 
C4 H6 N2

>  <ObservedFormula>  (190) 
C4 N2

>  <MolecularWeight>  (190) 
82.104

>  <ModifiedDate>  (190) 
2011-06-04

>  <Parent>  (190) 


>  <OneLetterCode>  (190) 


>  <SubcomponentList>  (190) 


>  <AmbiguousFlag>  (190) 
N

>  <InsertionCode>  (190) 


>  <InstanceId>  (190) 
2FNN_4MZ_A_264

>  <ChemCompId>  (190) 
4MZ

>  <PdbId>  (190) 
2FNN

>  <ResidueNumber>  (190) 
264

>  <InChI>  (190) 
InChI=1S/C4H6N2/c1-4-2-5-3-6-4/h2-3H,1H3,(H,5,6)

>  <InChIKey>  (190) 
XLSZMDLNRCVEIJ-UHFFFAOYSA-N

>  <SMILES>  (190) 
Cc1c[nH]cn1

>  <MissingHeavyAtoms>  (190) 
0

>  <Model>  (190) 
1

>  <AltIds>  (190) 


>  <pKI>  (190) 
0.7

>  <ChemblID>  (190) 
-

>  <standardized_canonical_smiles>  (190) 
Cc1c[nH]cn1

$$$$
4MLT_TM4_A_303
     RDKit          3D

  9  9  0  0  0  0  0  0  0  0999 V2000
   17.0480    1.0980   14.2750 O   0  0  0  0  0  0  0  0  0  0  0  0
   16.3380    2.0410   14.7750 C   0  0  0  0  0  0  0  0  0  0  0  0
   15.5260    1.7810   15.9380 C   0  0  0  0  0  0  0  0  0  0  0  0
   14.7780    2.8630   16.4170 C   0  0  0  0  0  0  0  0  0  0  0  0
   15.4870    0.2390   16.6670 S   0  0  0  0  0  0  0  0  0  0  0  0
   15.5720    4.3140   14.7430 O   0  0  0  0  0  0  0  0  0  0  0  0
   17.1480    3.6130   13.0310 C   0  0  0  0  0  0  0  0  0  0  0  0
   14.8390    4.0510   15.8140 C   0  0  0  0  0  0  0  0  0  0  0  0
   16.3100    3.3080   14.2400 C   0  0  0  0  0  0  0  0  0  0  0  0
  1  2  1  0
  3  4  1  0
  7  9  1  0
  8  4  2  0
  3  5  2  0
  9  6  1  0
  6  8  1  0
  2  3  1  0
  9  2  2  0
A    1
O2
A    2
C2
A    3
C3
A    4
C4
A    5
S1
A    6
O1
A    7
C6
A    8
C5
A    9
C1
M  END
>  <InstanceId>  (191) 
4MLT_TM4

>  <ChemCompId>  (191) 
TM4

>  <PdbId>  (191) 
4MLT

>  <ChainId>  (191) 
A

>  <ResidueNumber>  (191) 
303

>  <InsertionCode>  (191) 
null

>  <Model>  (191) 
1

>  <AltIds>  (191) 


>  <MissingHeavyAtoms>  (191) 
0

>  <ObservedFormula>  (191) 
C6 O2 S

>  <AsymId>  (191) 
D

>  <SeqNum>  (191) 
303

>  <Name>  (191) 
3-hydroxy-2-methyl-4H-pyran-4-thione

>  <SystematicName>  (191) 
2-methyl-3-oxidanyl-pyran-4-thione

>  <Synonyms>  (191) 


>  <Type>  (191) 
NON-POLYMER

>  <Formula>  (191) 
C6 H6 O2 S

>  <MolecularWeight>  (191) 
142.176

>  <ModifiedDate>  (191) 
2014-06-27

>  <Parent>  (191) 


>  <OneLetterCode>  (191) 


>  <SubcomponentList>  (191) 


>  <AmbiguousFlag>  (191) 
N

>  <InChI>  (191) 
InChI=1S/C6H6O2S/c1-4-6(7)5(9)2-3-8-4/h2-3,7H,1H3

>  <InChIKey>  (191) 
GKLSXUGPECNEMX-UHFFFAOYSA-N

>  <SMILES>  (191) 
CC1=C(C(=S)C=CO1)O

>  <pKI>  (191) 
2.85

>  <ChemblID>  (191) 
-

>  <standardized_canonical_smiles>  (191) 
Cc1occc(=S)c1O

$$$$
3OKU_VZ4_A_263
     RDKit          3D

 26 29  0  0  0  0  0  0  0  0999 V2000
   -6.7240    4.1750   16.4140 C   0  0  0  0  0  0  0  0  0  0  0  0
   -0.2850    8.9990   15.1130 C   0  0  0  0  0  0  0  0  0  0  0  0
   -5.2380   -0.7320   16.1660 N   0  0  0  0  0  0  0  0  0  0  0  0
   -0.4820   11.3020   12.9780 O   0  0  0  0  0  0  0  0  0  0  0  0
   -4.5650    1.4860   17.2250 O   0  0  0  0  0  0  0  0  0  0  0  0
   -6.8030    1.2810   16.2330 O   0  0  0  0  0  0  0  0  0  0  0  0
   -3.0300    2.8160   14.2230 C   0  0  0  0  0  0  0  0  0  0  0  0
   -4.5470    5.1080   14.2470 C   0  0  0  0  0  0  0  0  0  0  0  0
   -6.5800    3.9380   14.9060 C   0  0  0  0  0  0  0  0  0  0  0  0
    1.0360    9.5030   12.2250 C   0  0  0  0  0  0  0  0  0  0  0  0
   -0.9480    3.9950   13.5660 C   0  0  0  0  0  0  0  0  0  0  0  0
    1.0410    8.0560   12.7670 C   0  0  0  0  0  0  0  0  0  0  0  0
   -0.5400    5.2410   12.7690 C   0  0  0  0  0  0  0  0  0  0  0  0
   -3.0080    7.7990   14.4070 C   0  0  0  0  0  0  0  0  0  0  0  0
   -2.4230    9.1140   13.8130 C   0  0  0  0  0  0  0  0  0  0  0  0
   -4.8470    1.3800   14.8310 O   0  0  0  0  0  0  0  0  0  0  0  0
   -0.1720   10.1120   12.9560 C   0  0  0  0  0  0  0  0  0  0  0  0
   -5.1200    3.8690   14.5660 C   0  0  0  0  0  0  0  0  0  0  0  0
   -2.4390    4.0490   13.9100 C   0  0  0  0  0  0  0  0  0  0  0  0
   -4.3710    2.6790   14.5630 C   0  0  0  0  0  0  0  0  0  0  0  0
   -3.1870    5.2270   13.9430 C   0  0  0  0  0  0  0  0  0  0  0  0
   -2.5400    6.5710   13.5700 C   0  0  0  0  0  0  0  0  0  0  0  0
   -0.9870    6.4970   13.5250 C   0  0  0  0  0  0  0  0  0  0  0  0
   -0.4780    7.7990   12.8700 C   0  0  0  0  0  0  0  0  0  0  0  0
   -0.8970    9.0000   13.7150 C   0  0  0  0  0  0  0  0  0  0  0  0
   -5.3660    0.8870   16.1510 S   0  0  0  0  0  0  0  0  0  0  0  0
  9  1  1  0
 25  2  1  0
 26  3  1  0
 17  4  2  0
 26  5  2  0
 26  6  2  0
 19  7  2  0
 20  7  1  0
 18  8  1  0
 21  8  2  0
 18  9  1  0
 12 10  1  0
 17 10  1  0
 13 11  1  0
 19 11  1  0
 24 12  1  0
 23 13  1  0
 15 14  1  0
 22 14  1  0
 25 15  1  0
 20 16  1  0
 26 16  1  0
 25 17  1  0
 20 18  2  0
 21 19  1  0
 22 21  1  0
 23 22  1  0
 24 23  1  0
 25 24  1  0
A    1
CAA
A    2
CAB
A    3
NAC
A    4
OAD
A    5
OAE
A    6
OAF
A    7
CAG
A    8
CAH
A    9
CAI
A   10
CAJ
A   11
CAK
A   12
CAL
A   13
CAM
A   14
CAN
A   15
CAO
A   16
OAP
A   17
CAQ
A   18
CAR
A   19
CAS
A   20
CAT
A   21
CAU
A   22
CAV
A   23
CAW
A   24
CAX
A   25
CAY
A   26
SAZ
M  END
>  <Id>  (192) 
3OKU_VZ4_A_263

>  <ChainId>  (192) 
A

>  <AsymId>  (192) 
C

>  <SeqNum>  (192) 
263

>  <Name>  (192) 
(9beta)-2-ethyl-17-oxoestra-1(10),2,4-trien-3-yl sulfamate

>  <SystematicName>  (192) 
[(8R,9S,13S,14S)-2-ethyl-13-methyl-17-oxo-7,8,9,11,12,14,15,16-octahydro-6H-cyclopenta[a]phenanthren-3-yl] sulfamate

>  <Synonyms>  (192) 


>  <Type>  (192) 
NON-POLYMER

>  <Formula>  (192) 
C20 H27 N O4 S

>  <ObservedFormula>  (192) 
C20 S N O4

>  <MolecularWeight>  (192) 
377.498

>  <ModifiedDate>  (192) 
2011-07-01

>  <Parent>  (192) 


>  <OneLetterCode>  (192) 


>  <SubcomponentList>  (192) 


>  <AmbiguousFlag>  (192) 
N

>  <InsertionCode>  (192) 


>  <InstanceId>  (192) 
3OKU_VZ4_A_263

>  <ChemCompId>  (192) 
VZ4

>  <PdbId>  (192) 
3OKU

>  <ResidueNumber>  (192) 
263

>  <InChI>  (192) 
InChI=1S/C20H27NO4S/c1-3-12-10-16-13(11-18(12)25-26(21,23)24)4-5-15-14(16)8-9-20(2)17(15)6-7-19(20)22/h10-11,14-15,17H,3-9H2,1-2H3,(H2,21,23,24)/t14-,15+,17-,20-/m0/s1

>  <InChIKey>  (192) 
GTMOGHHWTKSVCD-MQJTVSLUSA-N

>  <SMILES>  (192) 
CCc1cc2c(cc1OS(=O)(=O)N)CC[C@@H]3[C@@H]2CC[C@]4([C@H]3CCC4=O)C

>  <MissingHeavyAtoms>  (192) 
0

>  <Model>  (192) 
1

>  <AltIds>  (192) 


>  <pKI>  (192) 
6.3

>  <ChemblID>  (192) 
-

>  <standardized_canonical_smiles>  (192) 
CCc1cc2c(cc1OS(N)(=O)=O)CC[C@@H]1[C@@H]2CC[C@]2(C)C(=O)CC[C@@H]12

$$$$
3OKV_VZ4_A_264
     RDKit          3D

 26 29  0  0  0  0  0  0  0  0999 V2000
   -0.5140    7.4920   13.3280 C   0  0  0  0  0  0  0  0  0  0  0  0
   -7.5380    8.8760   10.9580 C   0  0  0  0  0  0  0  0  0  0  0  0
    1.3830   12.5120   15.2220 N   0  0  0  0  0  0  0  0  0  0  0  0
   -8.5610    7.2350    8.4790 O   0  0  0  0  0  0  0  0  0  0  0  0
    1.2140   11.3880   12.9180 O   0  0  0  0  0  0  0  0  0  0  0  0
    0.1900   13.6070   13.2280 O   0  0  0  0  0  0  0  0  0  0  0  0
   -2.2760   11.9740   12.4030 C   0  0  0  0  0  0  0  0  0  0  0  0
   -2.4860    9.2440   12.1590 C   0  0  0  0  0  0  0  0  0  0  0  0
   -0.8940    8.7890   14.0640 C   0  0  0  0  0  0  0  0  0  0  0  0
   -8.3910    9.6120    7.8800 C   0  0  0  0  0  0  0  0  0  0  0  0
   -3.8390   12.4850   10.5330 C   0  0  0  0  0  0  0  0  0  0  0  0
   -7.4980   10.6770    8.5610 C   0  0  0  0  0  0  0  0  0  0  0  0
   -4.6630   11.7930    9.4240 C   0  0  0  0  0  0  0  0  0  0  0  0
   -4.6790    8.1260   10.6680 C   0  0  0  0  0  0  0  0  0  0  0  0
   -5.7640    7.5640    9.7300 C   0  0  0  0  0  0  0  0  0  0  0  0
   -0.7630   11.6610   14.2490 O   0  0  0  0  0  0  0  0  0  0  0  0
   -7.9990    8.3190    8.6110 C   0  0  0  0  0  0  0  0  0  0  0  0
   -1.6570    9.7690   13.1530 C   0  0  0  0  0  0  0  0  0  0  0  0
   -3.1060   11.4600   11.4040 C   0  0  0  0  0  0  0  0  0  0  0  0
   -1.5450   11.1500   13.2550 C   0  0  0  0  0  0  0  0  0  0  0  0
   -3.2050   10.0730   11.2860 C   0  0  0  0  0  0  0  0  0  0  0  0
   -4.1230    9.4840   10.2080 C   0  0  0  0  0  0  0  0  0  0  0  0
   -5.2570   10.4800    9.9280 C   0  0  0  0  0  0  0  0  0  0  0  0
   -6.2610    9.8560    8.9520 C   0  0  0  0  0  0  0  0  0  0  0  0
   -6.8690    8.6180    9.5920 C   0  0  0  0  0  0  0  0  0  0  0  0
    0.4720   12.2790   13.8690 S   0  0  0  0  0  0  0  0  0  0  0  0
  9  1  1  0
 25  2  1  0
 26  3  1  0
 17  4  2  0
 26  5  2  0
 26  6  2  0
 19  7  2  0
 20  7  1  0
 18  8  1  0
 21  8  2  0
 18  9  1  0
 12 10  1  0
 17 10  1  0
 13 11  1  0
 19 11  1  0
 24 12  1  0
 23 13  1  0
 15 14  1  0
 22 14  1  0
 25 15  1  0
 20 16  1  0
 26 16  1  0
 25 17  1  0
 20 18  2  0
 21 19  1  0
 22 21  1  0
 23 22  1  0
 24 23  1  0
 25 24  1  0
A    1
CAA
A    2
CAB
A    3
NAC
A    4
OAD
A    5
OAE
A    6
OAF
A    7
CAG
A    8
CAH
A    9
CAI
A   10
CAJ
A   11
CAK
A   12
CAL
A   13
CAM
A   14
CAN
A   15
CAO
A   16
OAP
A   17
CAQ
A   18
CAR
A   19
CAS
A   20
CAT
A   21
CAU
A   22
CAV
A   23
CAW
A   24
CAX
A   25
CAY
A   26
SAZ
M  END
>  <Id>  (193) 
3OKV_VZ4_A_264

>  <ChainId>  (193) 
A

>  <AsymId>  (193) 
D

>  <SeqNum>  (193) 
264

>  <Name>  (193) 
(9beta)-2-ethyl-17-oxoestra-1(10),2,4-trien-3-yl sulfamate

>  <SystematicName>  (193) 
[(8R,9S,13S,14S)-2-ethyl-13-methyl-17-oxo-7,8,9,11,12,14,15,16-octahydro-6H-cyclopenta[a]phenanthren-3-yl] sulfamate

>  <Synonyms>  (193) 


>  <Type>  (193) 
NON-POLYMER

>  <Formula>  (193) 
C20 H27 N O4 S

>  <ObservedFormula>  (193) 
C20 S N O4

>  <MolecularWeight>  (193) 
377.498

>  <ModifiedDate>  (193) 
2011-07-01

>  <Parent>  (193) 


>  <OneLetterCode>  (193) 


>  <SubcomponentList>  (193) 


>  <AmbiguousFlag>  (193) 
N

>  <InsertionCode>  (193) 


>  <InstanceId>  (193) 
3OKV_VZ4_A_264

>  <ChemCompId>  (193) 
VZ4

>  <PdbId>  (193) 
3OKV

>  <ResidueNumber>  (193) 
264

>  <InChI>  (193) 
InChI=1S/C20H27NO4S/c1-3-12-10-16-13(11-18(12)25-26(21,23)24)4-5-15-14(16)8-9-20(2)17(15)6-7-19(20)22/h10-11,14-15,17H,3-9H2,1-2H3,(H2,21,23,24)/t14-,15+,17-,20-/m0/s1

>  <InChIKey>  (193) 
GTMOGHHWTKSVCD-MQJTVSLUSA-N

>  <SMILES>  (193) 
CCc1cc2c(cc1OS(=O)(=O)N)CC[C@@H]3[C@@H]2CC[C@]4([C@H]3CCC4=O)C

>  <MissingHeavyAtoms>  (193) 
0

>  <Model>  (193) 
1

>  <AltIds>  (193) 


>  <pKI>  (193) 
6.3

>  <ChemblID>  (193) 
-

>  <standardized_canonical_smiles>  (193) 
CCc1cc2c(cc1OS(N)(=O)=O)CC[C@@H]1[C@@H]2CC[C@]2(C)C(=O)CC[C@@H]12

$$$$
3OYQ_GOL_A_400
     RDKit          3D

  6  5  0  0  0  0  0  0  0  0999 V2000
   -4.2870    2.1490   11.5150 C   0  0  0  0  0  0  0  0  0  0  0  0
   -4.9870    3.2690   10.9440 O   0  0  0  0  0  0  0  0  0  0  0  0
   -5.0040    0.8080   11.2720 C   0  0  0  0  0  0  0  0  0  0  0  0
   -5.1230    0.7280    9.8870 O   0  0  0  0  0  0  0  0  0  0  0  0
   -4.3220   -0.4630   11.8740 C   0  0  0  0  0  0  0  0  0  0  0  0
   -3.0970   -0.6230   11.2380 O   0  0  0  0  0  0  0  0  0  0  0  0
  2  1  1  0
  3  1  1  0
  4  3  1  0
  5  3  1  0
  6  5  1  0
A    1
C1
A    2
O1
A    3
C2
A    4
O2
A    5
C3
A    6
O3
M  END
>  <Id>  (194) 
3OYQ_GOL_A_400

>  <ChainId>  (194) 
A

>  <AsymId>  (194) 
E

>  <SeqNum>  (194) 
400

>  <Name>  (194) 
GLYCEROL

>  <SystematicName>  (194) 
propane-1,2,3-triol

>  <Synonyms>  (194) 
GLYCERIN; PROPANE-1,2,3-TRIOL

>  <Type>  (194) 
NON-POLYMER

>  <Formula>  (194) 
C3 H8 O3

>  <ObservedFormula>  (194) 
C3 O3

>  <MolecularWeight>  (194) 
92.094

>  <ModifiedDate>  (194) 
2011-06-04

>  <Parent>  (194) 


>  <OneLetterCode>  (194) 


>  <SubcomponentList>  (194) 


>  <AmbiguousFlag>  (194) 
N

>  <InsertionCode>  (194) 


>  <InstanceId>  (194) 
3OYQ_GOL_A_400

>  <ChemCompId>  (194) 
GOL

>  <PdbId>  (194) 
3OYQ

>  <ResidueNumber>  (194) 
400

>  <InChI>  (194) 
InChI=1S/C3H8O3/c4-1-3(6)2-5/h3-6H,1-2H2

>  <InChIKey>  (194) 
PEDCQBHIVMGVHV-UHFFFAOYSA-N

>  <SMILES>  (194) 
C(C(CO)O)O

>  <MissingHeavyAtoms>  (194) 
0

>  <Model>  (194) 
1

>  <AltIds>  (194) 


>  <pKI>  (194) 
7.99

>  <ChemblID>  (194) 
-

>  <standardized_canonical_smiles>  (194) 
CC[C@H](C)CCC(=O)Nc1ccc(S(N)(=O)=O)cc1

$$$$
3OYQ_DMS_A_3092
     RDKit          3D

  4  3  0  0  0  0  0  0  0  0999 V2000
    1.4140  -11.5710   14.9320 S   0  0  0  0  0  0  0  0  0  0  0  0
    2.5730  -10.6450   13.9310 O   0  0  0  0  0  0  0  0  0  0  0  0
    2.0350  -13.2690   14.8770 C   0  0  0  0  0  0  0  0  0  0  0  0
    1.5830  -11.1430   16.6870 C   0  0  0  0  0  0  0  0  0  0  0  0
  2  1  2  0
  3  1  1  0
  4  1  1  0
A    1
S
A    2
O
A    3
C1
A    4
C2
M  END
>  <Id>  (195) 
3OYQ_DMS_A_3092

>  <ChainId>  (195) 
A

>  <AsymId>  (195) 
D

>  <SeqNum>  (195) 
3092

>  <Name>  (195) 
DIMETHYL SULFOXIDE

>  <SystematicName>  (195) 
methylsulfinylmethane

>  <Synonyms>  (195) 


>  <Type>  (195) 
NON-POLYMER

>  <Formula>  (195) 
C2 H6 O S

>  <ObservedFormula>  (195) 
S C2 O

>  <MolecularWeight>  (195) 
78.133

>  <ModifiedDate>  (195) 
2011-06-04

>  <Parent>  (195) 


>  <OneLetterCode>  (195) 


>  <SubcomponentList>  (195) 


>  <AmbiguousFlag>  (195) 
N

>  <InsertionCode>  (195) 


>  <InstanceId>  (195) 
3OYQ_DMS_A_3092

>  <ChemCompId>  (195) 
DMS

>  <PdbId>  (195) 
3OYQ

>  <ResidueNumber>  (195) 
3092

>  <InChI>  (195) 
InChI=1S/C2H6OS/c1-4(2)3/h1-2H3

>  <InChIKey>  (195) 
IAZDPXIOMUYVGZ-UHFFFAOYSA-N

>  <SMILES>  (195) 
CS(=O)C

>  <MissingHeavyAtoms>  (195) 
0

>  <Model>  (195) 
1

>  <AltIds>  (195) 


>  <pKI>  (195) 
7.99

>  <ChemblID>  (195) 
-

>  <standardized_canonical_smiles>  (195) 
CC[C@H](C)CCC(=O)Nc1ccc(S(N)(=O)=O)cc1

$$$$
3OYQ_OYQ_A_263
     RDKit          3D

 19 19  0  0  0  0  0  0  0  0999 V2000
   -0.2910   10.2450   14.9080 C   0  0  0  0  0  0  0  0  0  0  0  0
    0.3270    8.1210   13.1670 C   0  0  0  0  0  0  0  0  0  0  0  0
   -5.3460   -0.4520   16.0600 N   0  0  0  0  0  0  0  0  0  0  0  0
   -4.7630    6.7140   13.0320 O   0  0  0  0  0  0  0  0  0  0  0  0
   -5.3770    1.2400   18.0450 O   0  0  0  0  0  0  0  0  0  0  0  0
   -7.3160    1.1810   16.5400 O   0  0  0  0  0  0  0  0  0  0  0  0
   -5.1920    4.4030   14.5200 C   0  0  0  0  0  0  0  0  0  0  0  0
   -3.1020    3.2280   14.7680 C   0  0  0  0  0  0  0  0  0  0  0  0
   -5.8370    3.3890   15.2430 C   0  0  0  0  0  0  0  0  0  0  0  0
   -3.7260    2.2440   15.4980 C   0  0  0  0  0  0  0  0  0  0  0  0
   -0.9520    8.9190   15.0920 C   0  0  0  0  0  0  0  0  0  0  0  0
   -2.6310    7.3190   12.2220 C   0  0  0  0  0  0  0  0  0  0  0  0
   -2.0520    8.4300   13.0060 C   0  0  0  0  0  0  0  0  0  0  0  0
   -3.0400    5.2590   13.5640 N   0  0  0  0  0  0  0  0  0  0  0  0
   -3.5750    6.4350   12.9590 C   0  0  0  0  0  0  0  0  0  0  0  0
   -3.8170    4.3070   14.2930 C   0  0  0  0  0  0  0  0  0  0  0  0
   -5.0920    2.2980   15.7430 C   0  0  0  0  0  0  0  0  0  0  0  0
   -0.9620    8.0160   13.9160 C   0  0  0  0  0  0  0  0  0  0  0  0
   -5.8440    0.9830   16.6910 S   0  0  0  0  0  0  0  0  0  0  0  0
 11  1  1  0
 18  2  1  0
 19  3  1  0
 15  4  2  0
 19  5  2  0
 19  6  2  0
  9  7  2  0
 16  7  1  0
 10  8  1  0
 16  8  2  0
 17  9  1  0
 17 10  2  0
 18 11  1  0
 13 12  1  0
 15 12  1  0
 18 13  1  0
 15 14  1  0
 16 14  1  0
 19 17  1  0
A    1
CAA
A    2
CAB
A    3
NAC
A    4
OAD
A    5
OAE
A    6
OAF
A    7
CAG
A    8
CAH
A    9
CAI
A   10
CAJ
A   11
CAK
A   12
CAL
A   13
CAM
A   14
NAN
A   15
CAO
A   16
CAP
A   17
CAQ
A   18
CAR
A   19
SAS
M  END
>  <Id>  (196) 
3OYQ_OYQ_A_263

>  <ChainId>  (196) 
A

>  <AsymId>  (196) 
C

>  <SeqNum>  (196) 
263

>  <Name>  (196) 
(4S)-4-methyl-N-(4-sulfamoylphenyl)hexanamide

>  <SystematicName>  (196) 
(4S)-4-methyl-N-(4-sulfamoylphenyl)hexanamide

>  <Synonyms>  (196) 


>  <Type>  (196) 
NON-POLYMER

>  <Formula>  (196) 
C13 H20 N2 O3 S

>  <ObservedFormula>  (196) 
C13 S N2 O3

>  <MolecularWeight>  (196) 
284.375

>  <ModifiedDate>  (196) 
2011-08-05

>  <Parent>  (196) 


>  <OneLetterCode>  (196) 


>  <SubcomponentList>  (196) 


>  <AmbiguousFlag>  (196) 
N

>  <InsertionCode>  (196) 


>  <InstanceId>  (196) 
3OYQ_OYQ_A_263

>  <ChemCompId>  (196) 
OYQ

>  <PdbId>  (196) 
3OYQ

>  <ResidueNumber>  (196) 
263

>  <InChI>  (196) 
InChI=1S/C13H20N2O3S/c1-3-10(2)4-9-13(16)15-11-5-7-12(8-6-11)19(14,17)18/h5-8,10H,3-4,9H2,1-2H3,(H,15,16)(H2,14,17,18)/t10-/m0/s1

>  <InChIKey>  (196) 
NTFBKJBQQKWQSL-JTQLQIEISA-N

>  <SMILES>  (196) 
CC[C@H](C)CCC(=O)Nc1ccc(cc1)S(=O)(=O)N

>  <MissingHeavyAtoms>  (196) 
0

>  <Model>  (196) 
1

>  <AltIds>  (196) 


>  <pKI>  (196) 
7.99

>  <ChemblID>  (196) 
-

>  <standardized_canonical_smiles>  (196) 
CC[C@H](C)CCC(=O)Nc1ccc(S(N)(=O)=O)cc1

$$$$
5AMG_IW7_A_266
     RDKit          3D

 22 22  0  0  0  0  0  0  0  0999 V2000
   -7.3700    1.3400   16.8430 O   0  0  0  0  0  0  0  0  0  0  0  0
   -5.9870    1.0240   16.5680 S   0  0  0  0  0  0  0  0  0  0  0  0
   -5.1090    1.3840   17.6380 O   0  0  0  0  0  0  0  0  0  0  0  0
   -5.7910   -0.5430   16.4470 N   0  0  0  0  0  0  0  0  0  0  0  0
   -5.4810    1.7990   15.1870 C   0  0  0  0  0  0  0  0  0  0  0  0
   -4.7720    1.1350   14.1540 C   0  0  0  0  0  0  0  0  0  0  0  0
   -4.3500    1.7960   12.9910 C   0  0  0  0  0  0  0  0  0  0  0  0
   -4.6250    3.1460   12.8210 C   0  0  0  0  0  0  0  0  0  0  0  0
   -4.2130    3.7870   11.5530 C   0  0  0  0  0  0  0  0  0  0  0  0
   -4.8070    3.4890   10.5540 O   0  0  0  0  0  0  0  0  0  0  0  0
   -3.2720    4.7000   11.5270 O   0  0  0  0  0  0  0  0  0  0  0  0
   -5.8010    3.1610   15.0110 C   0  0  0  0  0  0  0  0  0  0  0  0
   -5.4060    3.8630   13.8590 C   0  0  0  0  0  0  0  0  0  0  0  0
   -5.7460    5.4430   13.7160 S   0  0  0  0  0  0  0  0  0  0  0  0
   -6.4930    5.8670   12.5710 O   0  0  0  0  0  0  0  0  0  0  0  0
   -6.1440    5.9890   14.9510 O   0  0  0  0  0  0  0  0  0  0  0  0
   -4.3680    6.2280   13.4460 N   0  0  0  0  0  0  0  0  0  0  0  0
   -3.3230    6.2750   14.4680 C   0  0  0  0  0  0  0  0  0  0  0  0
   -2.1110    7.0870   14.0000 C   0  0  0  0  0  0  0  0  0  0  0  0
   -1.9600    8.3750   14.7620 C   0  0  0  0  0  0  0  0  0  0  0  0
   -0.8070    9.2180   14.2070 C   0  0  0  0  0  0  0  0  0  0  0  0
   -1.2430   10.4100   13.3730 C   0  0  0  0  0  0  0  0  0  0  0  0
  2  1  2  0
  3  2  2  0
  4  2  1  0
  5  2  1  0
  6  5  2  0
 12  5  1  0
  7  6  1  0
  8  7  2  0
  9  8  1  0
 13  8  1  0
 10  9  2  0
 11  9  1  0
 13 12  2  0
 14 13  1  0
 15 14  2  0
 16 14  2  0
 17 14  1  0
 18 17  1  0
 19 18  1  0
 20 19  1  0
 21 20  1  0
 22 21  1  0
A    1
O5
A    2
S1
A    3
O6
A    4
N7
A    5
C7
A    6
C8
A    7
C9
A    8
C10
A    9
C17
A   10
O18
A   11
O17
A   12
C12
A   13
C11
A   14
S13
A   15
O15
A   16
O14
A   17
N16
A   18
C19
A   19
C20
A   20
C21
A   21
C29
A   22
C30
M  END
>  <Id>  (197) 
5AMG_IW7_A_266

>  <ChainId>  (197) 
A

>  <AsymId>  (197) 
C

>  <SeqNum>  (197) 
266

>  <Name>  (197) 
2-(PENTYLSULFAMOYL)-4-SULFAMOYLBENZOIC ACID

>  <SystematicName>  (197) 
2-(pentylsulfamoyl)-4-sulfamoyl-benzoic acid

>  <Synonyms>  (197) 


>  <Type>  (197) 
non-polymer

>  <Formula>  (197) 
C12 H18 N2 O6 S2

>  <ObservedFormula>  (197) 
S2 C12 N2 O6

>  <MolecularWeight>  (197) 
350.411

>  <ModifiedDate>  (197) 
2015-04-03

>  <Parent>  (197) 


>  <OneLetterCode>  (197) 


>  <SubcomponentList>  (197) 


>  <AmbiguousFlag>  (197) 
N

>  <InsertionCode>  (197) 


>  <InstanceId>  (197) 
5AMG_IW7_A_266

>  <ChemCompId>  (197) 
IW7

>  <PdbId>  (197) 
5AMG

>  <ResidueNumber>  (197) 
266

>  <InChI>  (197) 
InChI=1S/C12H18N2O6S2/c1-2-3-4-7-14-22(19,20)11-8-9(21(13,17)18)5-6-10(11)12(15)16/h5-6,8,14H,2-4,7H2,1H3,(H,15,16)(H2,13,17,18)

>  <InChIKey>  (197) 
AEZMRAYAYORFQC-UHFFFAOYSA-N

>  <MissingHeavyAtoms>  (197) 
0

>  <Model>  (197) 
1

>  <AltIds>  (197) 


>  <pKI>  (197) 
8.22

>  <ChemblID>  (197) 
-

>  <standardized_canonical_smiles>  (197) 
CCCCCNS(=O)(=O)c1cc(S(N)(=O)=O)ccc1C(=O)O

$$$$
5AML_51J_A_266
     RDKit          3D

 21 21  0  0  0  0  0  0  0  0999 V2000
   -6.2510    5.9320   14.9740 O   0  0  0  0  0  0  0  0  0  0  0  0
   -5.6280    5.5060   13.7570 S   0  0  0  0  0  0  0  0  0  0  0  0
   -6.3120    5.7830   12.5660 O   0  0  0  0  0  0  0  0  0  0  0  0
   -4.2310    6.3380   13.6400 N   0  0  0  0  0  0  0  0  0  0  0  0
   -3.3990    6.3880   14.8350 C   0  0  0  0  0  0  0  0  0  0  0  0
   -2.4740    7.5090   14.7990 C   0  0  0  0  0  0  0  0  0  0  0  0
   -1.7400    8.4230   14.7690 C   0  0  0  0  0  0  0  0  0  0  0  0
   -0.8400    9.5600   14.7250 C   0  0  0  0  0  0  0  0  0  0  0  0
   -5.2670    3.8860   13.8640 C   0  0  0  0  0  0  0  0  0  0  0  0
   -4.5170    3.1520   12.8300 C   0  0  0  0  0  0  0  0  0  0  0  0
   -4.3040    1.8020   13.0520 C   0  0  0  0  0  0  0  0  0  0  0  0
   -4.1150    3.7680   11.5380 C   0  0  0  0  0  0  0  0  0  0  0  0
   -4.5970    3.3040   10.4770 O   0  0  0  0  0  0  0  0  0  0  0  0
   -3.3490    4.7410   11.5530 O   0  0  0  0  0  0  0  0  0  0  0  0
   -5.6790    3.1550   15.0090 C   0  0  0  0  0  0  0  0  0  0  0  0
   -5.3640    1.7980   15.2430 C   0  0  0  0  0  0  0  0  0  0  0  0
   -4.6860    1.1370   14.1970 C   0  0  0  0  0  0  0  0  0  0  0  0
   -5.9180    0.9820   16.6330 S   0  0  0  0  0  0  0  0  0  0  0  0
   -7.3430    1.3090   16.7330 O   0  0  0  0  0  0  0  0  0  0  0  0
   -5.0780    1.3780   17.7110 O   0  0  0  0  0  0  0  0  0  0  0  0
   -5.7290   -0.5660   16.4200 N   0  0  0  0  0  0  0  0  0  0  0  0
  2  1  2  0
  3  2  2  0
  4  2  1  0
  9  2  1  0
  5  4  1  0
  6  5  1  0
  7  6  3  0
  8  7  1  0
 10  9  2  0
 15  9  1  0
 11 10  1  0
 12 10  1  0
 17 11  2  0
 13 12  1  0
 14 12  2  0
 16 15  2  0
 17 16  1  0
 18 16  1  0
 19 18  2  0
 20 18  2  0
 21 18  1  0
A    1
O14
A    2
S13
A    3
O15
A    4
N16
A    5
C19
A    6
C20
A    7
C21
A    8
C29
A    9
C11
A   10
C10
A   11
C9
A   12
C17
A   13
O17
A   14
O18
A   15
C12
A   16
C7
A   17
C8
A   18
S1
A   19
O6
A   20
O5
A   21
N7
M  END
>  <Id>  (198) 
5AML_51J_A_266

>  <ChainId>  (198) 
A

>  <AsymId>  (198) 
C

>  <SeqNum>  (198) 
266

>  <Name>  (198) 
2-(BUT-2-YN-1-YLSULFAMOYL)-4-SULFAMOYLBENZOIC ACID

>  <SystematicName>  (198) 
2-(but-2-ynylsulfamoyl)-4-sulfamoyl-benzoic acid

>  <Synonyms>  (198) 


>  <Type>  (198) 
non-polymer

>  <Formula>  (198) 
C11 H12 N2 O6 S2

>  <ObservedFormula>  (198) 
S2 C11 N2 O6

>  <MolecularWeight>  (198) 
332.353

>  <ModifiedDate>  (198) 
2015-04-03

>  <Parent>  (198) 


>  <OneLetterCode>  (198) 


>  <SubcomponentList>  (198) 


>  <AmbiguousFlag>  (198) 
N

>  <InsertionCode>  (198) 


>  <InstanceId>  (198) 
5AML_51J_A_266

>  <ChemCompId>  (198) 
51J

>  <PdbId>  (198) 
5AML

>  <ResidueNumber>  (198) 
266

>  <InChI>  (198) 
InChI=1S/C11H12N2O6S2/c1-2-3-6-13-21(18,19)10-7-8(20(12,16)17)4-5-9(10)11(14)15/h4-5,7,13H,6H2,1H3,(H,14,15)(H2,12,16,17)

>  <InChIKey>  (198) 
GHPHHBCAYUNOIJ-UHFFFAOYSA-N

>  <SMILES>  (198) 
CC#CCNS(=O)(=O)c1cc(ccc1C(=O)O)S(=O)(=O)N

>  <MissingHeavyAtoms>  (198) 
0

>  <Model>  (198) 
1

>  <AltIds>  (198) 


>  <pKI>  (198) 
9.15

>  <ChemblID>  (198) 
-

>  <standardized_canonical_smiles>  (198) 
CC#CCNS(=O)(=O)c1cc(S(N)(=O)=O)ccc1C(=O)O

$$$$
4PQ7_IL3_A_303
     RDKit          3D

 17 17  0  0  0  0  0  0  0  0999 V2000
   16.3840   -4.5730    3.5730 C   0  0  0  0  0  0  0  0  0  0  0  0
   16.2130   -3.8500    4.8260 C   0  0  0  0  0  0  0  0  0  0  0  0
   16.0660   -3.2660    5.8490 C   0  0  0  0  0  0  0  0  0  0  0  0
   15.8680   -2.5660    7.1220 C   0  0  0  0  0  0  0  0  0  0  0  0
   15.2210   -3.5060    7.9810 O   0  0  0  0  0  0  0  0  0  0  0  0
   14.6670   -3.1070    9.1680 C   0  0  0  0  0  0  0  0  0  0  0  0
   14.3550   -1.7650    9.4180 C   0  0  0  0  0  0  0  0  0  0  0  0
   13.7830   -1.3930   10.6410 C   0  0  0  0  0  0  0  0  0  0  0  0
   14.4050   -4.0770   10.1420 C   0  0  0  0  0  0  0  0  0  0  0  0
   13.8330   -3.7040   11.3630 C   0  0  0  0  0  0  0  0  0  0  0  0
   13.5200   -2.3640   11.6150 C   0  0  0  0  0  0  0  0  0  0  0  0
   12.9010   -1.9960   12.9310 C   0  0  0  0  0  0  0  0  0  0  0  0
   11.7200   -1.1300   12.8070 N   0  0  0  0  0  0  0  0  0  0  0  0
   10.8430   -0.8810   14.1070 S   0  0  0  0  0  0  0  0  0  0  0  0
   10.1220    0.3010   13.7830 O   0  0  0  0  0  0  0  0  0  0  0  0
   10.0700   -2.0530   14.3190 O   0  0  0  0  0  0  0  0  0  0  0  0
   11.8030   -0.6170   15.3460 N   0  0  0  0  0  0  0  0  0  0  0  0
  2  1  1  0
  3  2  3  0
  4  3  1  0
  5  4  1  0
  6  5  1  0
  7  6  2  0
  9  6  1  0
  8  7  1  0
 11  8  2  0
 10  9  2  0
 11 10  1  0
 12 11  1  0
 13 12  1  0
 14 13  1  0
 15 14  2  0
 16 14  2  0
 17 14  1  0
A    1
C11
A    2
C10
A    3
C9
A    4
C8
A    5
O3
A    6
C5
A    7
C6
A    8
C7
A    9
C4
A   10
C3
A   11
C2
A   12
C1
A   13
N2
A   14
S1
A   15
O1
A   16
O2
A   17
N1
M  END
>  <Id>  (199) 
4PQ7_IL3_A_303

>  <ChainId>  (199) 
A

>  <AsymId>  (199) 
D

>  <SeqNum>  (199) 
303

>  <Name>  (199) 
1-but-2-ynoxy-4-[(sulfamoylamino)methyl]benzene

>  <SystematicName>  (199) 
1-but-2-ynoxy-4-[(sulfamoylamino)methyl]benzene

>  <Synonyms>  (199) 


>  <Type>  (199) 
NON-POLYMER

>  <Formula>  (199) 
C11 H14 N2 O3 S

>  <ObservedFormula>  (199) 
C11 S N2 O3

>  <MolecularWeight>  (199) 
254.305

>  <ModifiedDate>  (199) 
2014-10-03

>  <Parent>  (199) 


>  <OneLetterCode>  (199) 


>  <SubcomponentList>  (199) 


>  <AmbiguousFlag>  (199) 
N

>  <InsertionCode>  (199) 


>  <InstanceId>  (199) 
4PQ7_IL3_A_303

>  <ChemCompId>  (199) 
IL3

>  <PdbId>  (199) 
4PQ7

>  <ResidueNumber>  (199) 
303

>  <InChI>  (199) 
InChI=1S/C11H14N2O3S/c1-2-3-8-16-11-6-4-10(5-7-11)9-13-17(12,14)15/h4-7,13H,8-9H2,1H3,(H2,12,14,15)

>  <InChIKey>  (199) 
YCDIYRUTYILYGJ-UHFFFAOYSA-N

>  <SMILES>  (199) 
CC#CCOc1ccc(cc1)CNS(=O)(=O)N

>  <MissingHeavyAtoms>  (199) 
0

>  <Model>  (199) 
1

>  <AltIds>  (199) 


>  <pKI>  (199) 
8.02

>  <ChemblID>  (199) 
-

>  <standardized_canonical_smiles>  (199) 
CC#CCOc1ccc(CNS(N)(=O)=O)cc1

$$$$
6D1L_FQV_A_304
     RDKit          3D

 15 15  0  0  0  0  0  0  0  0999 V2000
   15.5720   -4.5050   77.9540 C   0  0  0  0  0  0  0  0  0  0  0  0
   16.4900   -3.9710   78.5220 C   0  0  0  0  0  0  0  0  0  0  0  0
   15.3180   -1.6400   82.5310 C   0  0  0  0  0  0  0  0  0  0  0  0
   15.4880    0.6350   81.8240 C   0  0  0  0  0  0  0  0  0  0  0  0
   16.1660   -2.0080   81.5100 C   0  0  0  0  0  0  0  0  0  0  0  0
   16.3340    0.2480   80.8070 C   0  0  0  0  0  0  0  0  0  0  0  0
   14.9840   -0.3150   82.6820 C   0  0  0  0  0  0  0  0  0  0  0  0
   16.6820   -1.0740   80.6340 C   0  0  0  0  0  0  0  0  0  0  0  0
   14.5260   -5.2210   77.2240 C   0  0  0  0  0  0  0  0  0  0  0  0
   17.7030   -3.4600   79.1730 C   0  0  0  0  0  0  0  0  0  0  0  0
   14.7850    0.4840   85.3760 N   0  0  0  0  0  0  0  0  0  0  0  0
   13.2270    1.4030   83.5810 O   0  0  0  0  0  0  0  0  0  0  0  0
   13.0450   -1.0090   84.1970 O   0  0  0  0  0  0  0  0  0  0  0  0
   13.8650    0.1650   83.9770 S   0  0  0  0  0  0  0  0  0  0  0  0
   17.8690   -1.5410   79.1600 Se  0  0  0  0  0  2  0  0  0  0  0  0
  2  1  3  0
  9  1  1  0
 10  2  1  0
  5  3  2  0
  7  3  1  0
  6  4  1  0
  7  4  2  0
  8  5  1  0
  8  6  2  0
 14  7  1  0
 15  8  1  0
 15 10  1  0
 14 11  1  0
 14 12  2  0
 14 13  2  0
A    1
C2
A    2
C3
A    3
C8
A    4
C14
A    5
C7
A    6
C15
A    7
C9
A    8
C6
A    9
C1
A   10
C4
A   11
N12
A   12
O11
A   13
O13
A   14
S10
A   15
SE5
M  END
>  <Id>  (200) 
6D1L_FQV_A_304

>  <ChainId>  (200) 
A

>  <AsymId>  (200) 
E

>  <SeqNum>  (200) 
304

>  <Name>  (200) 
4-[(but-2-yn-1-yl)selanyl]benzene-1-sulfonamide

>  <SystematicName>  (200) 
4-but-2-ynylselanylbenzenesulfonamide

>  <Synonyms>  (200) 


>  <Type>  (200) 
NON-POLYMER

>  <Formula>  (200) 
C10 H11 N O2 S Se

>  <ObservedFormula>  (200) 
Se C10 S N O2

>  <MolecularWeight>  (200) 
288.225

>  <ModifiedDate>  (200) 
2018-06-08

>  <Parent>  (200) 


>  <OneLetterCode>  (200) 


>  <SubcomponentList>  (200) 


>  <AmbiguousFlag>  (200) 
N

>  <InsertionCode>  (200) 


>  <InstanceId>  (200) 
6D1L_FQV_A_304

>  <ChemCompId>  (200) 
FQV

>  <PdbId>  (200) 
6D1L

>  <ResidueNumber>  (200) 
304

>  <InChI>  (200) 
InChI=1S/C10H11NO2SSe/c1-2-3-8-15-10-6-4-9(5-7-10)14(11,12)13/h4-7H,8H2,1H3,(H2,11,12,13)

>  <InChIKey>  (200) 
SYXVSYLKIVCGJW-UHFFFAOYSA-N

>  <SMILES>  (200) 
CC#CC[Se]c1ccc(cc1)S(=O)(=O)N

>  <MissingHeavyAtoms>  (200) 
0

>  <Model>  (200) 
1

>  <AltIds>  (200) 


>  <pKI>  (200) 
8.12

>  <ChemblID>  (200) 
-

>  <standardized_canonical_smiles>  (200) 
CC#CC[Se]c1ccc(S(N)(=O)=O)cc1

$$$$
5WLV_42G_A_303
     RDKit          3D

 30 31  0  0  0  0  0  0  0  0999 V2000
   -0.6200   10.6420   13.6390 C   0  0  0  0  0  0  0  0  0  0  0  0
    0.4850   10.9490   12.8620 C   0  0  0  0  0  0  0  0  0  0  0  0
    0.9280   12.2600   12.7610 C   0  0  0  0  0  0  0  0  0  0  0  0
    0.2660   13.2700   13.4410 C   0  0  0  0  0  0  0  0  0  0  0  0
   -0.8400   12.9640   14.2220 C   0  0  0  0  0  0  0  0  0  0  0  0
   -1.2850   11.6510   14.3220 C   0  0  0  0  0  0  0  0  0  0  0  0
   -1.1810    8.9120   13.7590 S   0  0  0  0  0  0  0  0  0  0  0  0
   -1.2840    8.4890   15.1580 O   0  0  0  0  0  0  0  0  0  0  0  0
   -2.5680    8.7490   13.3110 O   0  0  0  0  0  0  0  0  0  0  0  0
   -0.1210    7.8960   12.8800 N   0  0  0  0  0  0  0  0  0  0  0  0
    0.7650   14.7160   13.3250 C   0  0  0  0  0  0  0  0  0  0  0  0
    0.4320   15.3380   11.9690 C   0  0  0  0  0  0  0  0  0  0  0  0
   -0.9190   14.9390   11.5950 N   0  0  0  0  0  0  0  0  0  0  0  0
   -2.0270   15.7210   12.1220 C   0  0  0  0  0  0  0  0  0  0  0  0
   -1.8150   16.6580   12.8240 O   0  0  0  0  0  0  0  0  0  0  0  0
   -3.4710   15.3440   11.7940 C   0  0  0  0  0  0  0  0  0  0  0  0
   -4.4530   16.2900   12.0190 C   0  0  0  0  0  0  0  0  0  0  0  0
   -5.7690   15.9730   11.7430 C   0  0  0  0  0  0  0  0  0  0  0  0
   -6.0850   14.7140   11.2520 C   0  0  0  0  0  0  0  0  0  0  0  0
   -5.1080   13.7540   11.0380 C   0  0  0  0  0  0  0  0  0  0  0  0
   -3.7830   14.0760   11.3140 C   0  0  0  0  0  0  0  0  0  0  0  0
   -7.4390   14.4690   10.9970 O   0  0  0  0  0  0  0  0  0  0  0  0
   -7.7950   13.4470   10.1040 C   0  0  0  0  0  0  0  0  0  0  0  0
   -9.2580   13.8270    9.8920 C   0  0  0  0  0  0  0  0  0  0  0  0
  -10.0010   13.2900   10.9520 O   0  0  0  0  0  0  0  0  0  0  0  0
   -9.7530   13.4020    8.5080 C   0  0  0  0  0  0  0  0  0  0  0  0
  -11.1560   13.7590    8.3450 N   0  0  0  0  0  0  0  0  0  0  0  0
  -11.3570   14.9880    7.5840 C   0  0  0  0  0  0  0  0  0  0  0  0
  -12.7840   14.9830    7.0300 C   0  0  0  0  0  0  0  0  0  0  0  0
  -10.3210   15.1390    6.4640 C   0  0  0  0  0  0  0  0  0  0  0  0
  2  1  2  0
  6  1  1  0
  7  1  1  0
  3  2  1  0
  4  3  2  0
  5  4  1  0
 11  4  1  0
  6  5  2  0
  8  7  2  0
  9  7  2  0
 10  7  1  0
 12 11  1  0
 13 12  1  0
 14 13  1  0
 15 14  2  0
 16 14  1  0
 17 16  2  0
 21 16  1  0
 18 17  1  0
 19 18  2  0
 20 19  1  0
 22 19  1  0
 21 20  2  0
 23 22  1  0
 24 23  1  0
 25 24  1  0
 26 24  1  0
 27 26  1  0
 28 27  1  0
 29 28  1  0
 30 28  1  0
A    1
C01
A    2
C02
A    3
C03
A    4
C04
A    5
C05
A    6
C06
A    7
S07
A    8
O08
A    9
O09
A   10
N10
A   11
C11
A   12
C12
A   13
N13
A   14
C14
A   15
O15
A   16
C16
A   17
C17
A   18
C18
A   19
C19
A   20
C20
A   21
C21
A   22
O22
A   23
C23
A   24
C24
A   25
O25
A   26
C26
A   27
N27
A   28
C28
A   29
C29
A   30
C30
M  END
>  <Id>  (201) 
5WLV_42G_A_303

>  <ChainId>  (201) 
A

>  <AsymId>  (201) 
D

>  <SeqNum>  (201) 
303

>  <Name>  (201) 
4-{(2R)-2-hydroxy-3-[(propan-2-yl)amino]propoxy}-N-[2-(4-sulfamoylphenyl)ethyl]benzamide

>  <SystematicName>  (201) 
4-[(2~{R})-2-oxidanyl-3-(propan-2-ylamino)propoxy]-~{N}-[2-(4-sulfamoylphenyl)ethyl]benzamide

>  <Synonyms>  (201) 
aryloxy-2-hydroxypropylammine sulfonamide

>  <Type>  (201) 
NON-POLYMER

>  <Formula>  (201) 
C21 H29 N3 O5 S

>  <ObservedFormula>  (201) 
C21 S N3 O5

>  <MolecularWeight>  (201) 
435.537

>  <ModifiedDate>  (201) 
2018-07-27

>  <Parent>  (201) 


>  <OneLetterCode>  (201) 


>  <SubcomponentList>  (201) 


>  <AmbiguousFlag>  (201) 
N

>  <InsertionCode>  (201) 


>  <InstanceId>  (201) 
5WLV_42G_A_303

>  <ChemCompId>  (201) 
42G

>  <PdbId>  (201) 
5WLV

>  <ResidueNumber>  (201) 
303

>  <InChI>  (201) 
InChI=1S/C21H29N3O5S/c1-15(2)24-13-18(25)14-29-19-7-5-17(6-8-19)21(26)23-12-11-16-3-9-20(10-4-16)30(22,27)28/h3-10,15,18,24-25H,11-14H2,1-2H3,(H,23,26)(H2,22,27,28)/t18-/m1/s1

>  <InChIKey>  (201) 
GSFLHNJHWSDSTE-GOSISDBHSA-N

>  <SMILES>  (201) 
CC(C)NC[C@H](COc1ccc(cc1)C(=O)NCCc2ccc(cc2)S(=O)(=O)N)O

>  <MissingHeavyAtoms>  (201) 
0

>  <Model>  (201) 
1

>  <AltIds>  (201) 


>  <pKI>  (201) 
8.52

>  <ChemblID>  (201) 
-

>  <standardized_canonical_smiles>  (201) 
CC(C)NC[C@@H](O)COc1ccc(C(=O)NCCc2ccc(S(N)(=O)=O)cc2)cc1

$$$$
5WLU_42G_A_302
     RDKit          3D

 30 31  0  0  0  0  0  0  0  0999 V2000
   -1.5290    3.1310   86.2020 C   0  0  0  0  0  0  0  0  0  0  0  0
   -0.1700    3.2690   85.9450 C   0  0  0  0  0  0  0  0  0  0  0  0
    0.3100    4.4120   85.3090 C   0  0  0  0  0  0  0  0  0  0  0  0
   -0.5760    5.4140   84.9340 C   0  0  0  0  0  0  0  0  0  0  0  0
   -1.9290    5.2770   85.2090 C   0  0  0  0  0  0  0  0  0  0  0  0
   -2.4110    4.1420   85.8270 C   0  0  0  0  0  0  0  0  0  0  0  0
   -2.1620    1.6430   87.0220 S   0  0  0  0  0  0  0  0  0  0  0  0
   -1.6970    1.6820   88.3960 O   0  0  0  0  0  0  0  0  0  0  0  0
   -3.6220    1.6710   86.9780 O   0  0  0  0  0  0  0  0  0  0  0  0
   -1.5010    0.3050   86.2400 N   0  0  0  0  0  0  0  0  0  0  0  0
   -0.0600    6.6810   84.2480 C   0  0  0  0  0  0  0  0  0  0  0  0
   -0.4700    7.8810   85.0970 C   0  0  0  0  0  0  0  0  0  0  0  0
    0.0500    9.0890   84.4950 N   0  0  0  0  0  0  0  0  0  0  0  0
   -0.7300    9.7510   83.4690 C   0  0  0  0  0  0  0  0  0  0  0  0
   -1.7840    9.3300   83.1160 O   0  0  0  0  0  0  0  0  0  0  0  0
   -0.1010   11.0110   82.8800 C   0  0  0  0  0  0  0  0  0  0  0  0
    0.9930   11.5390   83.5380 C   0  0  0  0  0  0  0  0  0  0  0  0
    1.6000   12.6740   83.0320 C   0  0  0  0  0  0  0  0  0  0  0  0
    1.1120   13.2670   81.8760 C   0  0  0  0  0  0  0  0  0  0  0  0
    0.0180   12.7270   81.2230 C   0  0  0  0  0  0  0  0  0  0  0  0
   -0.5940   11.5880   81.7230 C   0  0  0  0  0  0  0  0  0  0  0  0
    1.7300   14.4230   81.3620 O   0  0  0  0  0  0  0  0  0  0  0  0
    3.0610   14.6080   81.8010 C   0  0  0  0  0  0  0  0  0  0  0  0
    3.1000   15.7200   82.8540 C   0  0  0  0  0  0  0  0  0  0  0  0
    2.0300   16.6010   82.6730 O   0  0  0  0  0  0  0  0  0  0  0  0
    4.4130   16.4960   82.7250 C   0  0  0  0  0  0  0  0  0  0  0  0
    4.8520   16.5060   81.3330 N   0  0  0  0  0  0  0  0  0  0  0  0
    5.2890   17.8390   80.9470 C   0  0  0  0  0  0  0  0  0  0  0  0
    4.2540   18.8780   81.3780 C   0  0  0  0  0  0  0  0  0  0  0  0
    6.6720   18.1330   81.5360 C   0  0  0  0  0  0  0  0  0  0  0  0
  2  1  2  0
  6  1  1  0
  7  1  1  0
  3  2  1  0
  4  3  2  0
  5  4  1  0
 11  4  1  0
  6  5  2  0
  8  7  2  0
  9  7  2  0
 10  7  1  0
 12 11  1  0
 13 12  1  0
 14 13  1  0
 15 14  2  0
 16 14  1  0
 17 16  2  0
 21 16  1  0
 18 17  1  0
 19 18  2  0
 20 19  1  0
 22 19  1  0
 21 20  2  0
 23 22  1  0
 24 23  1  0
 25 24  1  0
 26 24  1  0
 27 26  1  0
 28 27  1  0
 29 28  1  0
 30 28  1  0
A    1
C01
A    2
C02
A    3
C03
A    4
C04
A    5
C05
A    6
C06
A    7
S07
A    8
O08
A    9
O09
A   10
N10
A   11
C11
A   12
C12
A   13
N13
A   14
C14
A   15
O15
A   16
C16
A   17
C17
A   18
C18
A   19
C19
A   20
C20
A   21
C21
A   22
O22
A   23
C23
A   24
C24
A   25
O25
A   26
C26
A   27
N27
A   28
C28
A   29
C29
A   30
C30
M  END
>  <Id>  (202) 
5WLU_42G_A_302

>  <ChainId>  (202) 
A

>  <AsymId>  (202) 
C

>  <SeqNum>  (202) 
302

>  <Name>  (202) 
4-{(2R)-2-hydroxy-3-[(propan-2-yl)amino]propoxy}-N-[2-(4-sulfamoylphenyl)ethyl]benzamide

>  <SystematicName>  (202) 
4-[(2~{R})-2-oxidanyl-3-(propan-2-ylamino)propoxy]-~{N}-[2-(4-sulfamoylphenyl)ethyl]benzamide

>  <Synonyms>  (202) 
aryloxy-2-hydroxypropylammine sulfonamide

>  <Type>  (202) 
NON-POLYMER

>  <Formula>  (202) 
C21 H29 N3 O5 S

>  <ObservedFormula>  (202) 
C21 S N3 O5

>  <MolecularWeight>  (202) 
435.537

>  <ModifiedDate>  (202) 
2018-07-27

>  <Parent>  (202) 


>  <OneLetterCode>  (202) 


>  <SubcomponentList>  (202) 


>  <AmbiguousFlag>  (202) 
N

>  <InsertionCode>  (202) 


>  <InstanceId>  (202) 
5WLU_42G_A_302

>  <ChemCompId>  (202) 
42G

>  <PdbId>  (202) 
5WLU

>  <ResidueNumber>  (202) 
302

>  <InChI>  (202) 
InChI=1S/C21H29N3O5S/c1-15(2)24-13-18(25)14-29-19-7-5-17(6-8-19)21(26)23-12-11-16-3-9-20(10-4-16)30(22,27)28/h3-10,15,18,24-25H,11-14H2,1-2H3,(H,23,26)(H2,22,27,28)/t18-/m1/s1

>  <InChIKey>  (202) 
GSFLHNJHWSDSTE-GOSISDBHSA-N

>  <SMILES>  (202) 
CC(C)NC[C@H](COc1ccc(cc1)C(=O)NCCc2ccc(cc2)S(=O)(=O)N)O

>  <MissingHeavyAtoms>  (202) 
0

>  <Model>  (202) 
1

>  <AltIds>  (202) 


>  <pKI>  (202) 
8.52

>  <ChemblID>  (202) 
-

>  <standardized_canonical_smiles>  (202) 
CC(C)NC[C@@H](O)COc1ccc(C(=O)NCCc2ccc(S(N)(=O)=O)cc2)cc1

$$$$
5WLT_86B_A_305
     RDKit          3D

 19 19  0  0  0  0  0  0  0  0999 V2000
   -3.2550   15.4650   11.8410 C   0  0  0  0  0  0  0  0  0  0  0  0
   -4.3510   16.2950   12.1190 C   0  0  0  0  0  0  0  0  0  0  0  0
   -5.6310   15.8890   11.7910 C   0  0  0  0  0  0  0  0  0  0  0  0
   -5.8120   14.6520   11.1970 C   0  0  0  0  0  0  0  0  0  0  0  0
   -4.7440   13.8280   10.9780 C   0  0  0  0  0  0  0  0  0  0  0  0
   -3.4760   14.2300   11.3140 C   0  0  0  0  0  0  0  0  0  0  0  0
   -1.4990   15.8040   12.2630 S   0  0  0  0  0  0  0  0  0  0  0  0
   -1.4540   17.1940   12.6420 O   0  0  0  0  0  0  0  0  0  0  0  0
   -1.2440   15.0190   13.3980 O   0  0  0  0  0  0  0  0  0  0  0  0
   -0.4090   15.3100   11.0710 N   0  0  0  0  0  0  0  0  0  0  0  0
   -7.0820   14.1830   10.7980 O   0  0  0  0  0  0  0  0  0  0  0  0
   -7.9430   15.2310   10.5690 C   0  0  0  0  0  0  0  0  0  0  0  0
   -9.4190   14.8180   10.7030 C   0  0  0  0  0  0  0  0  0  0  0  0
   -9.9080   15.1140   12.1130 C   0  0  0  0  0  0  0  0  0  0  0  0
   -9.8840   16.5160   12.1300 N   0  0  0  0  0  0  0  0  0  0  0  0
   -9.5940   13.5070   10.4300 O   0  0  0  0  0  0  0  0  0  0  0  0
  -11.1920   17.2200   11.8930 C   0  0  0  0  0  0  0  0  0  0  0  0
  -11.2090   18.5510   12.5570 C   0  0  0  0  0  0  0  0  0  0  0  0
  -11.9050   17.3330   10.5390 C   0  0  0  0  0  0  0  0  0  0  0  0
  2  1  2  0
  6  1  1  0
  7  1  1  0
  3  2  1  0
  4  3  2  0
  5  4  1  0
 11  4  1  0
  6  5  2  0
  8  7  2  0
  9  7  2  0
 10  7  1  0
 12 11  1  0
 13 12  1  0
 14 13  1  0
 16 13  1  0
 15 14  1  0
 17 15  1  0
 18 17  1  0
 19 17  1  0
A    1
C01
A    2
C02
A    3
C03
A    4
C04
A    5
C05
A    6
C06
A    7
S07
A    8
O08
A    9
O09
A   10
N10
A   11
O11
A   12
C12
A   13
C13
A   14
C14
A   15
N15
A   16
O16
A   17
C17
A   18
C18
A   19
C19
M  END
>  <Id>  (203) 
5WLT_86B_A_305

>  <ChainId>  (203) 
A

>  <AsymId>  (203) 
F

>  <SeqNum>  (203) 
305

>  <Name>  (203) 
4-{(2S)-2-hydroxy-3-[(propan-2-yl)amino]propoxy}benzene-1-sulfonamide

>  <SystematicName>  (203) 
4-[(2~{S})-2-oxidanyl-3-(propan-2-ylamino)propoxy]benzenesulfonamide

>  <Synonyms>  (203) 
aryloxy-2-hydroxypropylammine sulfonamide

>  <Type>  (203) 
NON-POLYMER

>  <Formula>  (203) 
C12 H20 N2 O4 S

>  <ObservedFormula>  (203) 
C12 S N2 O4

>  <MolecularWeight>  (203) 
288.363

>  <ModifiedDate>  (203) 
2018-07-27

>  <Parent>  (203) 


>  <OneLetterCode>  (203) 


>  <SubcomponentList>  (203) 


>  <AmbiguousFlag>  (203) 
N

>  <InsertionCode>  (203) 


>  <InstanceId>  (203) 
5WLT_86B_A_305

>  <ChemCompId>  (203) 
86B

>  <PdbId>  (203) 
5WLT

>  <ResidueNumber>  (203) 
305

>  <InChI>  (203) 
InChI=1S/C12H20N2O4S/c1-9(2)14-7-10(15)8-18-11-3-5-12(6-4-11)19(13,16)17/h3-6,9-10,14-15H,7-8H2,1-2H3,(H2,13,16,17)/t10-/m0/s1

>  <InChIKey>  (203) 
AWVJYQXSBBLZMK-JTQLQIEISA-N

>  <SMILES>  (203) 
CC(C)NC[C@@H](COc1ccc(cc1)S(=O)(=O)N)O

>  <MissingHeavyAtoms>  (203) 
0

>  <Model>  (203) 
1

>  <AltIds>  (203) 


>  <pKI>  (203) 
6.81

>  <ChemblID>  (203) 
-

>  <standardized_canonical_smiles>  (203) 
CC(C)NC[C@H](O)COc1ccc(S(N)(=O)=O)cc1

$$$$
5WLR_86B_A_303
     RDKit          3D

 19 19  0  0  0  0  0  0  0  0999 V2000
   12.1740   -0.9780   12.8160 C   0  0  0  0  0  0  0  0  0  0  0  0
   12.5560   -0.0260   11.8770 C   0  0  0  0  0  0  0  0  0  0  0  0
   13.4060   -0.3910   10.8500 C   0  0  0  0  0  0  0  0  0  0  0  0
   13.8680   -1.6970   10.7600 C   0  0  0  0  0  0  0  0  0  0  0  0
   13.4810   -2.6460   11.6940 C   0  0  0  0  0  0  0  0  0  0  0  0
   12.6300   -2.2830   12.7260 C   0  0  0  0  0  0  0  0  0  0  0  0
   11.0460   -0.4860   14.1650 S   0  0  0  0  0  0  0  0  0  0  0  0
   10.2820    0.7000   13.7620 O   0  0  0  0  0  0  0  0  0  0  0  0
   10.0630   -1.5570   14.4100 O   0  0  0  0  0  0  0  0  0  0  0  0
   11.9180   -0.1580   15.6010 N   0  0  0  0  0  0  0  0  0  0  0  0
   14.7260   -2.0440    9.6930 O   0  0  0  0  0  0  0  0  0  0  0  0
   14.4790   -1.2570    8.5480 C   0  0  0  0  0  0  0  0  0  0  0  0
   15.4940   -1.6190    7.4620 C   0  0  0  0  0  0  0  0  0  0  0  0
   14.8270   -1.4690    6.0940 C   0  0  0  0  0  0  0  0  0  0  0  0
   14.3800   -2.7700    5.6020 N   0  0  0  0  0  0  0  0  0  0  0  0
   15.9140   -2.9340    7.6480 O   0  0  0  0  0  0  0  0  0  0  0  0
   15.2510   -3.2220    4.5320 C   0  0  0  0  0  0  0  0  0  0  0  0
   15.5350   -4.7080    4.6960 C   0  0  0  0  0  0  0  0  0  0  0  0
   14.5860   -2.9080    3.2000 C   0  0  0  0  0  0  0  0  0  0  0  0
  2  1  2  0
  6  1  1  0
  7  1  1  0
  3  2  1  0
  4  3  2  0
  5  4  1  0
 11  4  1  0
  6  5  2  0
  8  7  2  0
  9  7  2  0
 10  7  1  0
 12 11  1  0
 13 12  1  0
 14 13  1  0
 16 13  1  0
 15 14  1  0
 17 15  1  0
 18 17  1  0
 19 17  1  0
A    1
C01
A    2
C02
A    3
C03
A    4
C04
A    5
C05
A    6
C06
A    7
S07
A    8
O08
A    9
O09
A   10
N10
A   11
O11
A   12
C12
A   13
C13
A   14
C14
A   15
N15
A   16
O16
A   17
C17
A   18
C18
A   19
C19
M  END
>  <Id>  (204) 
5WLR_86B_A_303

>  <ChainId>  (204) 
A

>  <AsymId>  (204) 
D

>  <SeqNum>  (204) 
303

>  <Name>  (204) 
4-{(2S)-2-hydroxy-3-[(propan-2-yl)amino]propoxy}benzene-1-sulfonamide

>  <SystematicName>  (204) 
4-[(2~{S})-2-oxidanyl-3-(propan-2-ylamino)propoxy]benzenesulfonamide

>  <Synonyms>  (204) 
aryloxy-2-hydroxypropylammine sulfonamide

>  <Type>  (204) 
NON-POLYMER

>  <Formula>  (204) 
C12 H20 N2 O4 S

>  <ObservedFormula>  (204) 
C12 S N2 O4

>  <MolecularWeight>  (204) 
288.363

>  <ModifiedDate>  (204) 
2018-07-27

>  <Parent>  (204) 


>  <OneLetterCode>  (204) 


>  <SubcomponentList>  (204) 


>  <AmbiguousFlag>  (204) 
N

>  <InsertionCode>  (204) 


>  <InstanceId>  (204) 
5WLR_86B_A_303

>  <ChemCompId>  (204) 
86B

>  <PdbId>  (204) 
5WLR

>  <ResidueNumber>  (204) 
303

>  <InChI>  (204) 
InChI=1S/C12H20N2O4S/c1-9(2)14-7-10(15)8-18-11-3-5-12(6-4-11)19(13,16)17/h3-6,9-10,14-15H,7-8H2,1-2H3,(H2,13,16,17)/t10-/m0/s1

>  <InChIKey>  (204) 
AWVJYQXSBBLZMK-JTQLQIEISA-N

>  <SMILES>  (204) 
CC(C)NC[C@@H](COc1ccc(cc1)S(=O)(=O)N)O

>  <MissingHeavyAtoms>  (204) 
0

>  <Model>  (204) 
1

>  <AltIds>  (204) 


>  <pKI>  (204) 
6.81

>  <ChemblID>  (204) 
-

>  <standardized_canonical_smiles>  (204) 
CC(C)NC[C@H](O)COc1ccc(S(N)(=O)=O)cc1

$$$$
3T83_MG5_A_301
     RDKit          3D

 28 28  0  0  0  0  0  0  0  0999 V2000
   16.9470    0.2990   13.3080 O   0  0  0  0  0  0  0  0  0  0  0  0
   17.2500    0.1640   12.0210 C   0  0  0  0  0  0  0  0  0  0  0  0
   16.5780    1.1660   11.2220 C   0  0  0  0  0  0  0  0  0  0  0  0
   16.6380    0.9710    9.8500 O   0  0  0  0  0  0  0  0  0  0  0  0
   15.6410    1.1640    9.0760 C   0  0  0  0  0  0  0  0  0  0  0  0
   14.6960    1.9050    9.4540 O   0  0  0  0  0  0  0  0  0  0  0  0
   15.8760    0.9360    7.6080 C   0  0  0  0  0  0  0  0  0  0  0  0
   15.9440    2.1330    6.7210 C   0  0  0  0  0  0  0  0  0  0  0  0
   17.0280    2.6100   11.5970 C   0  0  0  0  0  0  0  0  0  0  0  0
   16.3310    3.6600   10.9970 O   0  0  0  0  0  0  0  0  0  0  0  0
   16.8990    4.5000   10.2080 C   0  0  0  0  0  0  0  0  0  0  0  0
   18.0100    4.2240    9.7000 O   0  0  0  0  0  0  0  0  0  0  0  0
   16.0330    5.5950    9.6370 C   0  0  0  0  0  0  0  0  0  0  0  0
   16.4810    6.2490    8.3450 C   0  0  0  0  0  0  0  0  0  0  0  0
   17.2010    2.7990   13.2620 C   0  0  0  0  0  0  0  0  0  0  0  0
   17.9540    3.9120   13.6600 O   0  0  0  0  0  0  0  0  0  0  0  0
   17.3890    5.0340   13.9370 C   0  0  0  0  0  0  0  0  0  0  0  0
   16.1500    5.1520   13.8350 O   0  0  0  0  0  0  0  0  0  0  0  0
   18.2450    6.2150   14.3090 C   0  0  0  0  0  0  0  0  0  0  0  0
   19.3530    6.5700   13.3590 C   0  0  0  0  0  0  0  0  0  0  0  0
   17.6150    1.3570   13.9260 C   0  0  0  0  0  0  0  0  0  0  0  0
   17.4650    1.4870   15.4260 C   0  0  0  0  0  0  0  0  0  0  0  0
   16.1520    1.8700   15.7610 O   0  0  0  0  0  0  0  0  0  0  0  0
   15.5310    1.1290   16.8980 S   0  0  0  0  0  0  0  0  0  0  0  0
   14.1040    1.4670   16.9110 O   0  0  0  0  0  0  0  0  0  0  0  0
   16.2480    1.5170   18.1050 O   0  0  0  0  0  0  0  0  0  0  0  0
   15.8200   -0.3960   16.7090 N   0  0  0  0  0  0  0  0  0  0  0  0
   17.3620   -1.1060   11.4920 O   0  0  0  0  0  0  0  0  0  0  0  0
  2  1  1  0
 21  1  1  0
  3  2  1  0
 28  2  1  0
  4  3  1  0
  9  3  1  0
  5  4  1  0
  6  5  2  0
  7  5  1  0
  8  7  1  0
 10  9  1  0
 15  9  1  0
 11 10  1  0
 12 11  2  0
 13 11  1  0
 14 13  1  0
 16 15  1  0
 21 15  1  0
 17 16  1  0
 18 17  2  0
 19 17  1  0
 20 19  1  0
 22 21  1  0
 23 22  1  0
 24 23  1  0
 25 24  2  0
 26 24  2  0
 27 24  1  0
A    1
O5
A    2
C1
A    3
C2
A    4
O2A
A    5
C2B
A    6
O2C
A    7
C2D
A    8
C2E
A    9
C3
A   10
O3A
A   11
C3B
A   12
O3C
A   13
C3D
A   14
C3E
A   15
C4
A   16
O4A
A   17
C4B
A   18
O4C
A   19
C4D
A   20
C4E
A   21
C5
A   22
C5A
A   23
O5B
A   24
S5C
A   25
O5D
A   26
O5E
A   27
N5F
A   28
O1A
M  END
>  <Id>  (205) 
3T83_MG5_A_301

>  <ChainId>  (205) 
A

>  <AsymId>  (205) 
D

>  <SeqNum>  (205) 
301

>  <Name>  (205) 
2,3,4-tri-O-propanoyl-6-O-sulfamoyl-beta-D-glucopyranose

>  <SystematicName>  (205) 
[(2R,3R,4S,5R,6R)-6-oxidanyl-4,5-di(propanoyloxy)-2-(sulfamoyloxymethyl)oxan-3-yl] propanoate

>  <Synonyms>  (205) 


>  <Type>  (205) 
saccharide

>  <Formula>  (205) 
C15 H25 N O11 S

>  <ObservedFormula>  (205) 
C15 S N O11

>  <MolecularWeight>  (205) 
427.424

>  <ModifiedDate>  (205) 
2011-10-14

>  <Parent>  (205) 


>  <OneLetterCode>  (205) 


>  <SubcomponentList>  (205) 


>  <AmbiguousFlag>  (205) 
N

>  <InsertionCode>  (205) 


>  <InstanceId>  (205) 
3T83_MG5_A_301

>  <ChemCompId>  (205) 
MG5

>  <PdbId>  (205) 
3T83

>  <ResidueNumber>  (205) 
301

>  <InChI>  (205) 
InChI=1S/C15H25NO11S/c1-4-9(17)25-12-8(7-23-28(16,21)22)24-15(20)14(27-11(19)6-3)13(12)26-10(18)5-2/h8,12-15,20H,4-7H2,1-3H3,(H2,16,21,22)/t8-,12-,13+,14-,15-/m1/s1

>  <InChIKey>  (205) 
TUQHVAPJYYJQSN-VIPIRZDLSA-N

>  <SMILES>  (205) 
CCC(=O)O[C@@H]1[C@H](O[C@H]([C@@H]([C@H]1OC(=O)CC)OC(=O)CC)O)COS(=O)(=O)N

>  <MissingHeavyAtoms>  (205) 
0

>  <Model>  (205) 
1

>  <AltIds>  (205) 


>  <pKI>  (205) 
6.98

>  <ChemblID>  (205) 
-

>  <standardized_canonical_smiles>  (205) 
CCC(=O)O[C@@H]1[C@@H](OC(=O)CC)[C@H](O)O[C@H](COS(N)(=O)=O)[C@H]1OC(=O)CC

$$$$
3T83_SG5_A_300
     RDKit          3D

 28 28  0  0  0  0  0  0  0  0999 V2000
   17.2500    0.1640   12.0210 C   0  0  0  0  0  0  0  0  0  0  0  0
   16.9470    0.2990   13.3080 O   0  0  0  0  0  0  0  0  0  0  0  0
   16.5780    1.1660   11.2220 C   0  0  0  0  0  0  0  0  0  0  0  0
   17.0280    2.6100   11.5970 C   0  0  0  0  0  0  0  0  0  0  0  0
   17.2010    2.7990   13.2620 C   0  0  0  0  0  0  0  0  0  0  0  0
   17.6150    1.3570   13.9260 C   0  0  0  0  0  0  0  0  0  0  0  0
   18.5050   -0.2200   11.6140 O   0  0  0  0  0  0  0  0  0  0  0  0
   16.6380    0.9710    9.8500 O   0  0  0  0  0  0  0  0  0  0  0  0
   15.6410    1.1640    9.0760 C   0  0  0  0  0  0  0  0  0  0  0  0
   14.6960    1.9050    9.4540 O   0  0  0  0  0  0  0  0  0  0  0  0
   15.8760    0.9360    7.6080 C   0  0  0  0  0  0  0  0  0  0  0  0
   15.9440    2.1330    6.7210 C   0  0  0  0  0  0  0  0  0  0  0  0
   16.3310    3.6600   10.9970 O   0  0  0  0  0  0  0  0  0  0  0  0
   16.8990    4.5000   10.2080 C   0  0  0  0  0  0  0  0  0  0  0  0
   18.0100    4.2240    9.7000 O   0  0  0  0  0  0  0  0  0  0  0  0
   16.0330    5.5950    9.6370 C   0  0  0  0  0  0  0  0  0  0  0  0
   16.4810    6.2490    8.3450 C   0  0  0  0  0  0  0  0  0  0  0  0
   17.9540    3.9120   13.6600 O   0  0  0  0  0  0  0  0  0  0  0  0
   17.3890    5.0340   13.9370 C   0  0  0  0  0  0  0  0  0  0  0  0
   16.1500    5.1520   13.8350 O   0  0  0  0  0  0  0  0  0  0  0  0
   18.2450    6.2150   14.3090 C   0  0  0  0  0  0  0  0  0  0  0  0
   19.3530    6.5700   13.3590 C   0  0  0  0  0  0  0  0  0  0  0  0
   17.4650    1.4870   15.4260 C   0  0  0  0  0  0  0  0  0  0  0  0
   16.1520    1.8700   15.7610 O   0  0  0  0  0  0  0  0  0  0  0  0
   15.5310    1.1290   16.8980 S   0  0  0  0  0  0  0  0  0  0  0  0
   14.1040    1.4670   16.9110 O   0  0  0  0  0  0  0  0  0  0  0  0
   16.2480    1.5170   18.1050 O   0  0  0  0  0  0  0  0  0  0  0  0
   15.8200   -0.3960   16.7090 N   0  0  0  0  0  0  0  0  0  0  0  0
  2  1  1  0
  3  1  1  0
  7  1  1  0
  6  2  1  0
  4  3  1  0
  8  3  1  0
  5  4  1  0
 13  4  1  0
  6  5  1  0
 18  5  1  0
 23  6  1  0
  9  8  1  0
 10  9  2  0
 11  9  1  0
 12 11  1  0
 14 13  1  0
 15 14  2  0
 16 14  1  0
 17 16  1  0
 19 18  1  0
 20 19  2  0
 21 19  1  0
 22 21  1  0
 24 23  1  0
 25 24  1  0
 26 25  2  0
 27 25  2  0
 28 25  1  0
A    1
C1
A    2
O5
A    3
C2
A    4
C3
A    5
C4
A    6
C5
A    7
O1A
A    8
O2A
A    9
C2B
A   10
O2C
A   11
C2D
A   12
C2E
A   13
O3A
A   14
C3B
A   15
O3C
A   16
C3D
A   17
C3E
A   18
O4A
A   19
C4B
A   20
O4C
A   21
C4D
A   22
C4E
A   23
C5A
A   24
O5B
A   25
S5C
A   26
O5D
A   27
O5E
A   28
N5F
M  END
>  <Id>  (206) 
3T83_SG5_A_300

>  <ChainId>  (206) 
A

>  <AsymId>  (206) 
C

>  <SeqNum>  (206) 
300

>  <Name>  (206) 
2,3,4-tri-O-propanoyl-6-O-sulfamoyl-alpha-D-glucopyranose

>  <SystematicName>  (206) 
[(2R,3R,4S,5R,6S)-6-oxidanyl-4,5-di(propanoyloxy)-2-(sulfamoyloxymethyl)oxan-3-yl] propanoate

>  <Synonyms>  (206) 


>  <Type>  (206) 
saccharide

>  <Formula>  (206) 
C15 H25 N O11 S

>  <ObservedFormula>  (206) 
C15 S N O11

>  <MolecularWeight>  (206) 
427.424

>  <ModifiedDate>  (206) 
2011-10-14

>  <Parent>  (206) 


>  <OneLetterCode>  (206) 


>  <SubcomponentList>  (206) 


>  <AmbiguousFlag>  (206) 
N

>  <InsertionCode>  (206) 


>  <InstanceId>  (206) 
3T83_SG5_A_300

>  <ChemCompId>  (206) 
SG5

>  <PdbId>  (206) 
3T83

>  <ResidueNumber>  (206) 
300

>  <InChI>  (206) 
InChI=1S/C15H25NO11S/c1-4-9(17)25-12-8(7-23-28(16,21)22)24-15(20)14(27-11(19)6-3)13(12)26-10(18)5-2/h8,12-15,20H,4-7H2,1-3H3,(H2,16,21,22)/t8-,12-,13+,14-,15+/m1/s1

>  <InChIKey>  (206) 
TUQHVAPJYYJQSN-WMNSZERYSA-N

>  <SMILES>  (206) 
CCC(=O)O[C@@H]1[C@H](O[C@@H]([C@@H]([C@H]1OC(=O)CC)OC(=O)CC)O)COS(=O)(=O)N

>  <MissingHeavyAtoms>  (206) 
0

>  <Model>  (206) 
1

>  <AltIds>  (206) 


>  <pKI>  (206) 
6.98

>  <ChemblID>  (206) 
-

>  <standardized_canonical_smiles>  (206) 
CCC(=O)O[C@@H]1[C@@H](OC(=O)CC)[C@@H](O)O[C@H](COS(N)(=O)=O)[C@H]1OC(=O)CC

$$$$
6CEH_EZ1_A_303
     RDKit          3D

 14 14  0  0  0  0  0  0  0  0999 V2000
   15.2500   -1.3120   83.0080 C   0  0  0  0  0  0  0  0  0  0  0  0
   15.4360    1.0050   82.3940 C   0  0  0  0  0  0  0  0  0  0  0  0
   16.1000   -1.6510   81.9890 C   0  0  0  0  0  0  0  0  0  0  0  0
   16.2850    0.6460   81.3610 C   0  0  0  0  0  0  0  0  0  0  0  0
   14.9240    0.0220   83.2000 C   0  0  0  0  0  0  0  0  0  0  0  0
   16.6160   -0.6810   81.1460 C   0  0  0  0  0  0  0  0  0  0  0  0
   18.4870   -4.4930   78.1290 C   0  0  0  0  0  0  0  0  0  0  0  0
   18.4090   -4.0920   79.4180 C   0  0  0  0  0  0  0  0  0  0  0  0
   17.4580   -3.0660   80.0010 C   0  0  0  0  0  0  0  0  0  0  0  0
   14.6740    0.7930   85.8500 N   0  0  0  0  0  0  0  0  0  0  0  0
   13.2150    1.7750   84.0370 O   0  0  0  0  0  0  0  0  0  0  0  0
   12.8760   -0.5670   84.7040 O   0  0  0  0  0  0  0  0  0  0  0  0
   13.7920    0.5330   84.4620 S   0  0  0  0  0  0  0  0  0  0  0  0
   17.7880   -1.1980   79.6900 Se  0  0  0  0  0  2  0  0  0  0  0  0
  3  1  2  0
  5  1  1  0
  4  2  1  0
  5  2  2  0
  6  3  1  0
  6  4  2  0
 13  5  1  0
 14  6  1  0
  8  7  2  0
  9  8  1  0
 14  9  1  0
 13 10  1  0
 13 11  2  0
 13 12  2  0
A    1
C7
A    2
C13
A    3
C6
A    4
C14
A    5
C8
A    6
C5
A    7
C1
A    8
C2
A    9
C3
A   10
N11
A   11
O10
A   12
O12
A   13
S9
A   14
SE4
M  END
>  <Id>  (207) 
6CEH_EZ1_A_303

>  <ChainId>  (207) 
A

>  <AsymId>  (207) 
D

>  <SeqNum>  (207) 
303

>  <Name>  (207) 
4-[(prop-2-en-1-yl)selanyl]benzene-1-sulfonamide

>  <SystematicName>  (207) 
4-prop-2-enylselanylbenzenesulfonamide

>  <Synonyms>  (207) 


>  <Type>  (207) 
NON-POLYMER

>  <Formula>  (207) 
C9 H11 N O2 S Se

>  <ObservedFormula>  (207) 
Se C9 S N O2

>  <MolecularWeight>  (207) 
276.214

>  <ModifiedDate>  (207) 
2018-05-18

>  <Parent>  (207) 


>  <OneLetterCode>  (207) 


>  <SubcomponentList>  (207) 


>  <AmbiguousFlag>  (207) 
N

>  <InsertionCode>  (207) 


>  <InstanceId>  (207) 
6CEH_EZ1_A_303

>  <ChemCompId>  (207) 
EZ1

>  <PdbId>  (207) 
6CEH

>  <ResidueNumber>  (207) 
303

>  <InChI>  (207) 
InChI=1S/C9H11NO2SSe/c1-2-7-14-9-5-3-8(4-6-9)13(10,11)12/h2-6H,1,7H2,(H2,10,11,12)

>  <InChIKey>  (207) 
KMBXWUNECGFGKU-UHFFFAOYSA-N

>  <SMILES>  (207) 
C=CC[Se]c1ccc(cc1)S(=O)(=O)N

>  <MissingHeavyAtoms>  (207) 
0

>  <Model>  (207) 
1

>  <AltIds>  (207) 


>  <pKI>  (207) 
7.44

>  <ChemblID>  (207) 
-

>  <standardized_canonical_smiles>  (207) 
C=CC[Se]c1ccc(S(N)(=O)=O)cc1

$$$$
5NY6_R92_A_303
     RDKit          3D

 23 24  0  0  0  0  0  0  0  0999 V2000
  -31.0800   -4.1410    6.4730 Cl  0  0  0  0  0  0  0  0  0  0  0  0
  -29.7150   -4.2180    5.4660 C   0  0  0  0  0  0  0  0  0  0  0  0
  -28.4480   -4.2430    6.0560 C   0  0  0  0  0  0  0  0  0  0  0  0
  -28.1900   -4.1870    7.7000 S   0  0  0  0  0  0  0  0  0  0  0  0
  -27.0480   -4.9920    7.9960 O   0  0  0  0  0  0  0  0  0  0  0  0
  -27.9700   -2.8450    8.1470 O   0  0  0  0  0  0  0  0  0  0  0  0
  -29.5420   -4.8100    8.2230 N   0  0  0  0  0  0  0  0  0  0  0  0
  -29.8630   -4.2640    4.0800 C   0  0  0  0  0  0  0  0  0  0  0  0
  -28.7190   -4.3380    3.2820 C   0  0  0  0  0  0  0  0  0  0  0  0
  -27.4480   -4.3490    3.8830 C   0  0  0  0  0  0  0  0  0  0  0  0
  -27.3030   -4.3180    5.2540 C   0  0  0  0  0  0  0  0  0  0  0  0
  -26.2190   -4.4420    3.0690 C   0  0  0  0  0  0  0  0  0  0  0  0
  -25.3420   -3.5410    3.1120 O   0  0  0  0  0  0  0  0  0  0  0  0
  -26.1150   -5.5540    2.3150 N   0  0  0  0  0  0  0  0  0  0  0  0
  -24.9560   -5.8090    1.4960 C   0  0  0  0  0  0  0  0  0  0  0  0
  -24.7640   -7.3430    1.5080 C   0  0  0  0  0  0  0  0  0  0  0  0
  -25.0590   -5.2110    0.1110 C   0  0  0  0  0  0  0  0  0  0  0  0
  -24.0010   -5.1380   -0.8050 C   0  0  0  0  0  0  0  0  0  0  0  0
  -22.7570   -5.6060   -0.4470 O   0  0  0  0  0  0  0  0  0  0  0  0
  -24.1340   -4.6060   -2.1100 C   0  0  0  0  0  0  0  0  0  0  0  0
  -25.3700   -4.1320   -2.4990 C   0  0  0  0  0  0  0  0  0  0  0  0
  -26.4450   -4.1950   -1.6220 C   0  0  0  0  0  0  0  0  0  0  0  0
  -26.3030   -4.7280   -0.3450 C   0  0  0  0  0  0  0  0  0  0  0  0
  2  1  1  0
  3  2  2  0
  8  2  1  0
  4  3  1  0
 11  3  1  0
  5  4  2  0
  6  4  2  0
  7  4  1  0
  9  8  2  0
 10  9  1  0
 11 10  2  0
 12 10  1  0
 13 12  2  0
 14 12  1  0
 15 14  1  0
 16 15  1  0
 17 15  1  0
 18 17  2  0
 23 17  1  0
 19 18  1  0
 20 18  1  0
 21 20  2  0
 22 21  1  0
 23 22  2  0
A    1
CL6
A    2
C6
A    3
C1
A    4
S
A    5
O1
A    6
O2
A    7
N1
A    8
C5
A    9
C4
A   10
C3
A   11
C2
A   12
C
A   13
O7
A   14
N8
A   15
C9
A   16
C16
A   17
C10
A   18
C11
A   19
O11
A   20
C12
A   21
C14
A   22
C15
A   23
C13
M  END
>  <Id>  (208) 
5NY6_R92_A_303

>  <ChainId>  (208) 
A

>  <AsymId>  (208) 
D

>  <SeqNum>  (208) 
303

>  <Name>  (208) 
4-chloranyl-~{N}-[(1~{S})-1-(2-hydroxyphenyl)ethyl]-3-sulfamoyl-benzamide

>  <SystematicName>  (208) 
4-chloranyl-~{N}-[(1~{S})-1-(2-hydroxyphenyl)ethyl]-3-sulfamoyl-benzamide

>  <Synonyms>  (208) 


>  <Type>  (208) 
NON-POLYMER

>  <Formula>  (208) 
C15 H15 Cl N2 O4 S

>  <ObservedFormula>  (208) 
C15 S Cl N2 O4

>  <MolecularWeight>  (208) 
354.809

>  <ModifiedDate>  (208) 
2018-01-12

>  <Parent>  (208) 


>  <OneLetterCode>  (208) 


>  <SubcomponentList>  (208) 


>  <AmbiguousFlag>  (208) 
N

>  <InsertionCode>  (208) 


>  <InstanceId>  (208) 
5NY6_R92_A_303

>  <ChemCompId>  (208) 
R92

>  <PdbId>  (208) 
5NY6

>  <ResidueNumber>  (208) 
303

>  <InChI>  (208) 
InChI=1S/C15H15ClN2O4S/c1-9(11-4-2-3-5-13(11)19)18-15(20)10-6-7-12(16)14(8-10)23(17,21)22/h2-9,19H,1H3,(H,18,20)(H2,17,21,22)/t9-/m0/s1

>  <InChIKey>  (208) 
YTZRBQIEUYQFPK-VIFPVBQESA-N

>  <SMILES>  (208) 
C[C@@H](c1ccccc1O)NC(=O)c2ccc(c(c2)S(=O)(=O)N)Cl

>  <MissingHeavyAtoms>  (208) 
0

>  <Model>  (208) 
1

>  <AltIds>  (208) 


>  <pKI>  (208) 
7.85

>  <ChemblID>  (208) 
-

>  <standardized_canonical_smiles>  (208) 
C[C@H](NC(=O)c1ccc(Cl)c(S(N)(=O)=O)c1)c1ccccc1O

$$$$
3PO6_ACT_A_268
     RDKit          3D

  3  2  0  0  0  0  0  0  0  0999 V2000
  -25.9830   -6.3480   13.0660 C   0  0  0  0  0  0  0  0  0  0  0  0
  -26.9500   -6.4890   12.2580 O   0  0  0  0  0  0  0  0  0  0  0  0
  -25.7240   -5.1730   13.4480 O   0  0  0  0  0  0  0  0  0  0  0  0
  2  1  2  0
  3  1  1  0
M  CHG  1   3  -1
A    1
C
A    2
O
A    3
OXT
M  END
>  <Id>  (209) 
3PO6_ACT_A_268

>  <ChainId>  (209) 
A

>  <AsymId>  (209) 
I

>  <SeqNum>  (209) 
268

>  <Name>  (209) 
ACETATE ION

>  <SystematicName>  (209) 
ethanoate

>  <Synonyms>  (209) 


>  <Type>  (209) 
NON-POLYMER

>  <Formula>  (209) 
C2 H3 O2

>  <ObservedFormula>  (209) 
C O2

>  <MolecularWeight>  (209) 
59.044

>  <ModifiedDate>  (209) 
2011-06-04

>  <Parent>  (209) 


>  <OneLetterCode>  (209) 


>  <SubcomponentList>  (209) 


>  <AmbiguousFlag>  (209) 
N

>  <InsertionCode>  (209) 


>  <InstanceId>  (209) 
3PO6_ACT_A_268

>  <ChemCompId>  (209) 
ACT

>  <PdbId>  (209) 
3PO6

>  <ResidueNumber>  (209) 
268

>  <InChI>  (209) 
InChI=1S/C2H4O2/c1-2(3)4/h1H3,(H,3,4)/p-1

>  <InChIKey>  (209) 
QTBSBXVTEAMEQO-UHFFFAOYSA-M

>  <SMILES>  (209) 
CC(=O)[O-]

>  <MissingHeavyAtoms>  (209) 
1

>  <Model>  (209) 
1

>  <AltIds>  (209) 


>  <pKI>  (209) 
3.89

>  <ChemblID>  (209) 
-

>  <standardized_canonical_smiles>  (209) 
CC(=O)[O-]

$$$$
6NJ3_ACT_A_301
     RDKit          3D

  4  3  0  0  0  0  0  0  0  0999 V2000
   54.9180   65.8980    6.9680 C   0  0  0  0  0  0  0  0  0  0  0  0
   53.8090   66.4800    6.8220 O   0  0  0  0  0  0  0  0  0  0  0  0
   55.1880   64.7850    7.5080 O   0  0  0  0  0  0  0  0  0  0  0  0
   56.1200   66.6110    6.3440 C   0  0  0  0  0  0  0  0  0  0  0  0
  2  1  2  0
  3  1  1  0
  4  1  1  0
M  CHG  1   3  -1
A    1
C
A    2
O
A    3
OXT
A    4
CH3
M  END
>  <Id>  (210) 
6NJ3_ACT_A_301

>  <ChainId>  (210) 
A

>  <AsymId>  (210) 
B

>  <SeqNum>  (210) 
301

>  <Name>  (210) 
ACETATE ION

>  <SystematicName>  (210) 
ethanoate

>  <Synonyms>  (210) 


>  <Type>  (210) 
NON-POLYMER

>  <Formula>  (210) 
C2 H3 O2

>  <ObservedFormula>  (210) 
C2 O2

>  <MolecularWeight>  (210) 
59.044

>  <ModifiedDate>  (210) 
2011-06-04

>  <Parent>  (210) 


>  <OneLetterCode>  (210) 


>  <SubcomponentList>  (210) 


>  <AmbiguousFlag>  (210) 
N

>  <InsertionCode>  (210) 


>  <InstanceId>  (210) 
6NJ3_ACT_A_301

>  <ChemCompId>  (210) 
ACT

>  <PdbId>  (210) 
6NJ3

>  <ResidueNumber>  (210) 
301

>  <InChI>  (210) 
InChI=1S/C2H4O2/c1-2(3)4/h1H3,(H,3,4)/p-1

>  <InChIKey>  (210) 
QTBSBXVTEAMEQO-UHFFFAOYSA-M

>  <SMILES>  (210) 
CC(=O)[O-]

>  <MissingHeavyAtoms>  (210) 
0

>  <Model>  (210) 
1

>  <AltIds>  (210) 


>  <pKI>  (210) 
3.89

>  <ChemblID>  (210) 
-

>  <standardized_canonical_smiles>  (210) 
CC(=O)[O-]

$$$$
5BRW_ACT_A_305
     RDKit          3D

  4  3  0  0  0  0  0  0  0  0999 V2000
  -15.6170  -33.4880  105.7170 C   0  0  0  0  0  0  0  0  0  0  0  0
  -16.2210  -34.4450  105.2180 O   0  0  0  0  0  0  0  0  0  0  0  0
  -14.7010  -33.7130  106.5590 O   0  0  0  0  0  0  0  0  0  0  0  0
  -16.0480  -32.0850  105.3410 C   0  0  0  0  0  0  0  0  0  0  0  0
  2  1  2  0
  3  1  1  0
  4  1  1  0
M  CHG  1   3  -1
A    1
C
A    2
O
A    3
OXT
A    4
CH3
M  END
>  <Id>  (211) 
5BRW_ACT_A_305

>  <ChainId>  (211) 
A

>  <AsymId>  (211) 
F

>  <SeqNum>  (211) 
305

>  <Name>  (211) 
ACETATE ION

>  <SystematicName>  (211) 
ethanoate

>  <Synonyms>  (211) 


>  <Type>  (211) 
NON-POLYMER

>  <Formula>  (211) 
C2 H3 O2

>  <ObservedFormula>  (211) 
C2 O2

>  <MolecularWeight>  (211) 
59.044

>  <ModifiedDate>  (211) 
2011-06-04

>  <Parent>  (211) 


>  <OneLetterCode>  (211) 


>  <SubcomponentList>  (211) 


>  <AmbiguousFlag>  (211) 
N

>  <InsertionCode>  (211) 


>  <InstanceId>  (211) 
5BRW_ACT_A_305

>  <ChemCompId>  (211) 
ACT

>  <PdbId>  (211) 
5BRW

>  <ResidueNumber>  (211) 
305

>  <InChI>  (211) 
InChI=1S/C2H4O2/c1-2(3)4/h1H3,(H,3,4)/p-1

>  <InChIKey>  (211) 
QTBSBXVTEAMEQO-UHFFFAOYSA-M

>  <SMILES>  (211) 
CC(=O)[O-]

>  <MissingHeavyAtoms>  (211) 
0

>  <Model>  (211) 
1

>  <AltIds>  (211) 


>  <pKI>  (211) 
3.89

>  <ChemblID>  (211) 
-

>  <standardized_canonical_smiles>  (211) 
CC(=O)[O-]

$$$$
1XEG_ACT_A_263
     RDKit          3D

  4  3  0  0  0  0  0  0  0  0999 V2000
   19.0940   25.1450   19.4640 C   0  0  0  0  0  0  0  0  0  0  0  0
   19.5710   24.9900   18.3070 O   0  0  0  0  0  0  0  0  0  0  0  0
   19.7190   25.1170   20.6240 O   0  0  0  0  0  0  0  0  0  0  0  0
   17.5990   25.3940   19.5480 C   0  0  0  0  0  0  0  0  0  0  0  0
  2  1  2  0
  3  1  1  0
  4  1  1  0
M  CHG  1   3  -1
A    1
C
A    2
O
A    3
OXT
A    4
CH3
M  END
>  <Id>  (212) 
1XEG_ACT_A_263

>  <ChainId>  (212) 
A

>  <AsymId>  (212) 
B

>  <SeqNum>  (212) 
263

>  <Name>  (212) 
ACETATE ION

>  <SystematicName>  (212) 
ethanoate

>  <Synonyms>  (212) 


>  <Type>  (212) 
NON-POLYMER

>  <Formula>  (212) 
C2 H3 O2

>  <ObservedFormula>  (212) 
C2 O2

>  <MolecularWeight>  (212) 
59.044

>  <ModifiedDate>  (212) 
2011-06-04

>  <Parent>  (212) 


>  <OneLetterCode>  (212) 


>  <SubcomponentList>  (212) 


>  <AmbiguousFlag>  (212) 
N

>  <InsertionCode>  (212) 


>  <InstanceId>  (212) 
1XEG_ACT_A_263

>  <ChemCompId>  (212) 
ACT

>  <PdbId>  (212) 
1XEG

>  <ResidueNumber>  (212) 
263

>  <InChI>  (212) 
InChI=1S/C2H4O2/c1-2(3)4/h1H3,(H,3,4)/p-1

>  <InChIKey>  (212) 
QTBSBXVTEAMEQO-UHFFFAOYSA-M

>  <SMILES>  (212) 
CC(=O)[O-]

>  <MissingHeavyAtoms>  (212) 
0

>  <Model>  (212) 
1

>  <AltIds>  (212) 


>  <pKI>  (212) 
3.89

>  <ChemblID>  (212) 
-

>  <standardized_canonical_smiles>  (212) 
CC(=O)[O-]

$$$$
3T82_SG4_A_300
     RDKit          3D

 22 22  0  0  0  0  0  0  0  0999 V2000
   17.1480    2.3090   11.7260 C   0  0  0  0  0  0  0  0  0  0  0  0
   18.4300    1.9400   11.4020 O   0  0  0  0  0  0  0  0  0  0  0  0
   16.5330    3.4750   10.9130 C   0  0  0  0  0  0  0  0  0  0  0  0
   16.4290    3.3320    9.5500 O   0  0  0  0  0  0  0  0  0  0  0  0
   16.8610    4.8610   11.4680 C   0  0  0  0  0  0  0  0  0  0  0  0
   16.1600    5.9150   10.8620 O   0  0  0  0  0  0  0  0  0  0  0  0
   17.0120    4.9480   12.9860 C   0  0  0  0  0  0  0  0  0  0  0  0
   17.5530    6.1170   13.5280 O   0  0  0  0  0  0  0  0  0  0  0  0
   17.4140    3.6530   13.7080 C   0  0  0  0  0  0  0  0  0  0  0  0
   16.8020    2.4610   13.1430 O   0  0  0  0  0  0  0  0  0  0  0  0
   17.3250    3.7730   15.2070 C   0  0  0  0  0  0  0  0  0  0  0  0
   16.0160    4.0260   15.6390 O   0  0  0  0  0  0  0  0  0  0  0  0
   16.1620    3.6880   17.9910 O   0  0  0  0  0  0  0  0  0  0  0  0
   15.7670    1.7370   16.5650 N   0  0  0  0  0  0  0  0  0  0  0  0
   15.4650    3.2520   16.7870 S   0  0  0  0  0  0  0  0  0  0  0  0
   14.0320    3.5770   16.8710 O   0  0  0  0  0  0  0  0  0  0  0  0
   15.6090    7.1130   13.8150 O   0  0  0  0  0  0  0  0  0  0  0  0
   16.8720    7.1330   13.8620 C   0  0  0  0  0  0  0  0  0  0  0  0
   16.7280    6.8170   10.1520 C   0  0  0  0  0  0  0  0  0  0  0  0
   17.9620    6.7480    9.9070 O   0  0  0  0  0  0  0  0  0  0  0  0
   17.5920    8.3480   14.3520 C   0  0  0  0  0  0  0  0  0  0  0  0
   15.8970    7.9610    9.6240 C   0  0  0  0  0  0  0  0  0  0  0  0
  2  1  1  0
  3  1  1  0
 10  1  1  0
  4  3  1  0
  5  3  1  0
  6  5  1  0
  7  5  1  0
 19  6  1  0
  8  7  1  0
  9  7  1  0
 18  8  1  0
 10  9  1  0
 11  9  1  0
 12 11  1  0
 15 12  1  0
 15 13  2  0
 15 14  1  0
 16 15  2  0
 18 17  2  0
 21 18  1  0
 20 19  2  0
 22 19  1  0
A    1
C1
A    2
O1
A    3
C2
A    4
O2
A    5
C3
A    6
O3
A    7
C4
A    8
O4
A    9
C5
A   10
O5
A   11
C6
A   12
O6
A   13
OAB
A   14
NAH
A   15
SAI
A   16
OAQ
A   17
OAW
A   18
CAX
A   19
CAY
A   20
OAZ
A   21
CBA
A   22
CBB
M  END
>  <Id>  (213) 
3T82_SG4_A_300

>  <ChainId>  (213) 
A

>  <AsymId>  (213) 
C

>  <SeqNum>  (213) 
300

>  <Name>  (213) 
3,4-di-O-acetyl-6-O-sulfamoyl-alpha-D-glucopyranose

>  <SystematicName>  (213) 
[(2R,3R,4R,5R,6S)-4-acetyloxy-5,6-bis(oxidanyl)-2-(sulfamoyloxymethyl)oxan-3-yl] ethanoate

>  <Synonyms>  (213) 


>  <Type>  (213) 
saccharide

>  <Formula>  (213) 
C10 H17 N O10 S

>  <ObservedFormula>  (213) 
C10 S N O10

>  <MolecularWeight>  (213) 
343.308

>  <ModifiedDate>  (213) 
2011-10-14

>  <Parent>  (213) 


>  <OneLetterCode>  (213) 


>  <SubcomponentList>  (213) 


>  <AmbiguousFlag>  (213) 
N

>  <InsertionCode>  (213) 


>  <InstanceId>  (213) 
3T82_SG4_A_300

>  <ChemCompId>  (213) 
SG4

>  <PdbId>  (213) 
3T82

>  <ResidueNumber>  (213) 
300

>  <InChI>  (213) 
InChI=1S/C10H17NO10S/c1-4(12)19-8-6(3-18-22(11,16)17)21-10(15)7(14)9(8)20-5(2)13/h6-10,14-15H,3H2,1-2H3,(H2,11,16,17)/t6-,7-,8-,9-,10+/m1/s1

>  <InChIKey>  (213) 
XQYNJXXCRGRITM-IGORNWKESA-N

>  <SMILES>  (213) 
CC(=O)O[C@@H]1[C@H](O[C@@H]([C@@H]([C@H]1OC(=O)C)O)O)COS(=O)(=O)N

>  <MissingHeavyAtoms>  (213) 
0

>  <Model>  (213) 
1

>  <AltIds>  (213) 


>  <pKI>  (213) 
6.76

>  <ChemblID>  (213) 
-

>  <standardized_canonical_smiles>  (213) 
CC(=O)O[C@@H]1[C@@H](COS(N)(=O)=O)O[C@H](O)[C@H](O)[C@H]1OC(C)=O

$$$$
3T85_SG7_A_300
     RDKit          3D

 22 22  0  0  0  0  0  0  0  0999 V2000
   16.9100    1.9370   11.6300 C   0  0  0  0  0  0  0  0  0  0  0  0
   16.8830    2.0640   13.0700 O   0  0  0  0  0  0  0  0  0  0  0  0
   16.5680    3.1850   10.8550 C   0  0  0  0  0  0  0  0  0  0  0  0
   17.0400    4.4280   11.4420 C   0  0  0  0  0  0  0  0  0  0  0  0
   16.8440    4.5030   12.8700 C   0  0  0  0  0  0  0  0  0  0  0  0
   17.4380    3.2840   13.5290 C   0  0  0  0  0  0  0  0  0  0  0  0
   18.1250    1.4390   11.2350 O   0  0  0  0  0  0  0  0  0  0  0  0
   15.1630    3.2430   10.7540 O   0  0  0  0  0  0  0  0  0  0  0  0
   16.3210    5.5110   10.8810 O   0  0  0  0  0  0  0  0  0  0  0  0
   16.9150    6.3120   10.0940 C   0  0  0  0  0  0  0  0  0  0  0  0
   16.2040    7.5370    9.5780 C   0  0  0  0  0  0  0  0  0  0  0  0
   18.1010    6.0840    9.7800 O   0  0  0  0  0  0  0  0  0  0  0  0
   17.5150    5.6200   13.3900 O   0  0  0  0  0  0  0  0  0  0  0  0
   17.8020    7.8540   14.2910 C   0  0  0  0  0  0  0  0  0  0  0  0
   16.9330    6.6940   13.8560 C   0  0  0  0  0  0  0  0  0  0  0  0
   15.6940    6.9050   13.6370 O   0  0  0  0  0  0  0  0  0  0  0  0
   17.4160    2.9590   15.0090 C   0  0  0  0  0  0  0  0  0  0  0  0
   16.3320    3.5160   15.6880 O   0  0  0  0  0  0  0  0  0  0  0  0
   15.4200    2.6410   16.4770 S   0  0  0  0  0  0  0  0  0  0  0  0
   14.0320    3.0260   16.7900 O   0  0  0  0  0  0  0  0  0  0  0  0
   15.9420    3.1630   17.7480 O   0  0  0  0  0  0  0  0  0  0  0  0
   15.8140    1.1460   16.6140 N   0  0  0  0  0  0  0  0  0  0  0  0
  2  1  1  0
  3  1  1  0
  7  1  1  0
  6  2  1  0
  4  3  1  0
  8  3  1  0
  5  4  1  0
  9  4  1  0
  6  5  1  0
 13  5  1  0
 17  6  1  0
 10  9  1  0
 11 10  1  0
 12 10  2  0
 15 13  1  0
 15 14  1  0
 16 15  2  0
 18 17  1  0
 19 18  1  0
 20 19  2  0
 21 19  2  0
 22 19  1  0
A    1
C1
A    2
O5
A    3
C2
A    4
C3
A    5
C4
A    6
C5
A    7
O1A
A    8
O2A
A    9
O3A
A   10
C3B
A   11
C3C
A   12
O3D
A   13
O4A
A   14
C4B
A   15
C4C
A   16
O4D
A   17
C5A
A   18
O5B
A   19
S5C
A   20
O5D
A   21
O5E
A   22
N5F
M  END
>  <Id>  (214) 
3T85_SG7_A_300

>  <ChainId>  (214) 
A

>  <AsymId>  (214) 
C

>  <SeqNum>  (214) 
300

>  <Name>  (214) 
3,4-di-O-acetyl-6-O-sulfamoyl-alpha-D-mannopyranose

>  <SystematicName>  (214) 
[(2R,3R,4R,5S,6S)-4-acetyloxy-5,6-bis(oxidanyl)-2-(sulfamoyloxymethyl)oxan-3-yl] ethanoate

>  <Synonyms>  (214) 


>  <Type>  (214) 
saccharide

>  <Formula>  (214) 
C10 H17 N O10 S

>  <ObservedFormula>  (214) 
C10 S N O10

>  <MolecularWeight>  (214) 
343.308

>  <ModifiedDate>  (214) 
2011-10-14

>  <Parent>  (214) 


>  <OneLetterCode>  (214) 


>  <SubcomponentList>  (214) 


>  <AmbiguousFlag>  (214) 
N

>  <InsertionCode>  (214) 


>  <InstanceId>  (214) 
3T85_SG7_A_300

>  <ChemCompId>  (214) 
SG7

>  <PdbId>  (214) 
3T85

>  <ResidueNumber>  (214) 
300

>  <InChI>  (214) 
InChI=1S/C10H17NO10S/c1-4(12)19-8-6(3-18-22(11,16)17)21-10(15)7(14)9(8)20-5(2)13/h6-10,14-15H,3H2,1-2H3,(H2,11,16,17)/t6-,7+,8-,9-,10+/m1/s1

>  <InChIKey>  (214) 
XQYNJXXCRGRITM-ZOZBQHSOSA-N

>  <SMILES>  (214) 
CC(=O)O[C@@H]1[C@H](O[C@@H]([C@H]([C@H]1OC(=O)C)O)O)COS(=O)(=O)N

>  <MissingHeavyAtoms>  (214) 
0

>  <Model>  (214) 
1

>  <AltIds>  (214) 


>  <pKI>  (214) 
7.95

>  <ChemblID>  (214) 
-

>  <standardized_canonical_smiles>  (214) 
CC(=O)O[C@@H]1[C@H](O)[C@@H](O)O[C@H](COS(N)(=O)=O)[C@H]1OC(C)=O

$$$$
3T84_SG6_A_300
     RDKit          3D

 19 19  0  0  0  0  0  0  0  0999 V2000
   16.8280   -0.9160   11.7370 C   0  0  0  0  0  0  0  0  0  0  0  0
   16.7780   -0.7360   13.1360 O   0  0  0  0  0  0  0  0  0  0  0  0
   16.3060    0.2350   11.0090 C   0  0  0  0  0  0  0  0  0  0  0  0
   16.9720    1.4900   11.2790 C   0  0  0  0  0  0  0  0  0  0  0  0
   17.0290    1.7470   12.7340 C   0  0  0  0  0  0  0  0  0  0  0  0
   17.3890    0.5030   13.5480 C   0  0  0  0  0  0  0  0  0  0  0  0
   18.1020   -1.2750   11.2620 O   0  0  0  0  0  0  0  0  0  0  0  0
   16.2090   -0.0490    9.6460 O   0  0  0  0  0  0  0  0  0  0  0  0
   16.5180    2.5410   10.4690 O   0  0  0  0  0  0  0  0  0  0  0  0
   15.8980    2.4350   13.2230 O   0  0  0  0  0  0  0  0  0  0  0  0
   14.8500    4.0770   14.6020 C   0  0  0  0  0  0  0  0  0  0  0  0
   16.0510    3.4480   13.9750 C   0  0  0  0  0  0  0  0  0  0  0  0
   17.1990    3.8120   14.3640 O   0  0  0  0  0  0  0  0  0  0  0  0
   17.4320    0.6120   15.0700 C   0  0  0  0  0  0  0  0  0  0  0  0
   16.2230    0.9770   15.6230 O   0  0  0  0  0  0  0  0  0  0  0  0
   15.4380    0.0960   16.5130 S   0  0  0  0  0  0  0  0  0  0  0  0
   14.0740    0.4180   16.9500 O   0  0  0  0  0  0  0  0  0  0  0  0
   16.0570    0.6770   17.7030 O   0  0  0  0  0  0  0  0  0  0  0  0
   15.8140   -1.4290   16.4490 N   0  0  0  0  0  0  0  0  0  0  0  0
  2  1  1  0
  3  1  1  0
  7  1  1  0
  6  2  1  0
  4  3  1  0
  8  3  1  0
  5  4  1  0
  9  4  1  0
  6  5  1  0
 10  5  1  0
 14  6  1  0
 12 10  1  0
 12 11  1  0
 13 12  2  0
 15 14  1  0
 16 15  1  0
 17 16  2  0
 18 16  2  0
 19 16  1  0
A    1
C1
A    2
O5
A    3
C2
A    4
C3
A    5
C4
A    6
C5
A    7
O1A
A    8
O2A
A    9
O3A
A   10
O4A
A   11
C4B
A   12
C4C
A   13
O4D
A   14
C5A
A   15
O5B
A   16
S5C
A   17
O5D
A   18
O5E
A   19
N5F
M  END
>  <Id>  (215) 
3T84_SG6_A_300

>  <ChainId>  (215) 
A

>  <AsymId>  (215) 
C

>  <SeqNum>  (215) 
300

>  <Name>  (215) 
4-O-acetyl-6-O-sulfamoyl-alpha-D-galactopyranose

>  <SystematicName>  (215) 
[(2R,3R,4R,5R,6S)-4,5,6-tris(oxidanyl)-2-(sulfamoyloxymethyl)oxan-3-yl] ethanoate

>  <Synonyms>  (215) 


>  <Type>  (215) 
saccharide

>  <Formula>  (215) 
C8 H15 N O9 S

>  <ObservedFormula>  (215) 
C8 S N O9

>  <MolecularWeight>  (215) 
301.271

>  <ModifiedDate>  (215) 
2011-10-14

>  <Parent>  (215) 


>  <OneLetterCode>  (215) 


>  <SubcomponentList>  (215) 


>  <AmbiguousFlag>  (215) 
N

>  <InsertionCode>  (215) 


>  <InstanceId>  (215) 
3T84_SG6_A_300

>  <ChemCompId>  (215) 
SG6

>  <PdbId>  (215) 
3T84

>  <ResidueNumber>  (215) 
300

>  <InChI>  (215) 
InChI=1S/C8H15NO9S/c1-3(10)17-7-4(2-16-19(9,14)15)18-8(13)6(12)5(7)11/h4-8,11-13H,2H2,1H3,(H2,9,14,15)/t4-,5-,6-,7+,8+/m1/s1

>  <InChIKey>  (215) 
FXBYYANFSLVRSY-YQXRAVKXSA-N

>  <SMILES>  (215) 
CC(=O)O[C@H]1[C@H](O[C@@H]([C@@H]([C@H]1O)O)O)COS(=O)(=O)N

>  <MissingHeavyAtoms>  (215) 
0

>  <Model>  (215) 
1

>  <AltIds>  (215) 


>  <pKI>  (215) 
6.97

>  <ChemblID>  (215) 
-

>  <standardized_canonical_smiles>  (215) 
CC(=O)O[C@H]1[C@@H](COS(N)(=O)=O)O[C@H](O)[C@H](O)[C@H]1O

$$$$
3BL0_MBO_A_301
     RDKit          3D

 10 10  0  0  0  0  0  0  0  0999 V2000
   -1.9560   10.6920   24.6650 Hg  0  0  0  0  0  1  0  0  0  0  0  0
   -1.2370   11.4220   26.7130 C   0  0  0  0  0  0  0  0  0  0  0  0
   -0.8330   12.7480   26.8520 C   0  0  0  0  0  0  0  0  0  0  0  0
   -0.4130   13.1990   28.0980 C   0  0  0  0  0  0  0  0  0  0  0  0
   -0.3980   12.3270   29.1880 C   0  0  0  0  0  0  0  0  0  0  0  0
   -0.8030   10.9990   29.0500 C   0  0  0  0  0  0  0  0  0  0  0  0
   -1.2300   10.5430   27.8040 C   0  0  0  0  0  0  0  0  0  0  0  0
    0.0690   12.8360   30.5200 C   0  0  0  0  0  0  0  0  0  0  0  0
    0.4140   14.0250   30.5850 O   0  0  0  0  0  0  0  0  0  0  0  0
    0.0950   12.0780   31.5180 O   0  0  0  0  0  0  0  0  0  0  0  0
  2  1  1  0
  3  2  2  0
  7  2  1  0
  4  3  1  0
  5  4  2  0
  6  5  1  0
  8  5  1  0
  7  6  2  0
  9  8  2  0
 10  8  1  0
A    1
HG
A    2
CE1
A    3
CE2
A    4
CE3
A    5
CE4
A    6
CE5
A    7
CE6
A    8
CZ
A    9
OZ1
A   10
OZ2
M  END
>  <Id>  (216) 
3BL0_MBO_A_301

>  <ChainId>  (216) 
A

>  <AsymId>  (216) 
D

>  <SeqNum>  (216) 
301

>  <Name>  (216) 
MERCURIBENZOIC ACID

>  <SystematicName>  (216) 
(4-carboxyphenyl)mercury

>  <Synonyms>  (216) 


>  <Type>  (216) 
NON-POLYMER

>  <Formula>  (216) 
C7 H5 Hg O2

>  <ObservedFormula>  (216) 
C7 O2

>  <MolecularWeight>  (216) 
321.703

>  <ModifiedDate>  (216) 
2011-06-04

>  <Parent>  (216) 


>  <OneLetterCode>  (216) 


>  <SubcomponentList>  (216) 


>  <AmbiguousFlag>  (216) 
N

>  <InsertionCode>  (216) 


>  <InstanceId>  (216) 
3BL0_MBO_A_301

>  <ChemCompId>  (216) 
MBO

>  <PdbId>  (216) 
3BL0

>  <ResidueNumber>  (216) 
301

>  <InChI>  (216) 
InChI=1S/C7H5O2.Hg/c8-7(9)6-4-2-1-3-5-6;/h2-5H,(H,8,9);

>  <InChIKey>  (216) 
FVFZSVRSDNUCGG-UHFFFAOYSA-N

>  <SMILES>  (216) 
c1cc(ccc1C(=O)O)[Hg]

>  <MissingHeavyAtoms>  (216) 
0

>  <Model>  (216) 
1

>  <AltIds>  (216) 


>  <pKI>  (216) 
6.92

>  <ChemblID>  (216) 
-

>  <standardized_canonical_smiles>  (216) 
CN(C)c1nnc(CS(N)(=O)=O)s1

$$$$
3BL0_BL0_A_300
     RDKit          3D

 13 13  0  0  0  0  0  0  0  0999 V2000
   -4.3930    7.4330   12.8310 C   0  0  0  0  0  0  0  0  0  0  0  0
   -5.2990    6.3810   13.2370 N   0  0  0  0  0  0  0  0  0  0  0  0
   -6.7030    6.6270   12.9950 C   0  0  0  0  0  0  0  0  0  0  0  0
   -4.8070    5.1870   13.7200 C   0  0  0  0  0  0  0  0  0  0  0  0
   -5.7200    3.7480   14.0210 S   0  0  0  0  0  0  0  0  0  0  0  0
   -3.5120    5.0100   13.9920 N   0  0  0  0  0  0  0  0  0  0  0  0
   -3.2130    3.7120   14.4280 N   0  0  0  0  0  0  0  0  0  0  0  0
   -4.2850    2.8900   14.5040 C   0  0  0  0  0  0  0  0  0  0  0  0
   -4.4090    1.4370   14.8800 C   0  0  0  0  0  0  0  0  0  0  0  0
   -5.2240    1.0780   16.2820 S   0  0  0  0  0  0  0  0  0  0  0  0
   -6.5510    1.4340   16.1720 O   0  0  0  0  0  0  0  0  0  0  0  0
   -5.1550   -0.4460   16.5620 N   0  0  0  0  0  0  0  0  0  0  0  0
   -4.5290    1.6510   17.3790 O   0  0  0  0  0  0  0  0  0  0  0  0
  2  1  1  0
  3  2  1  0
  4  2  1  0
  5  4  1  0
  6  4  2  0
  8  5  1  0
  7  6  1  0
  8  7  2  0
  9  8  1  0
 10  9  1  0
 11 10  2  0
 12 10  1  0
 13 10  2  0
A    1
CA1
A    2
NA1
A    3
CA2
A    4
CA3
A    5
SA1
A    6
NA2
A    7
NA3
A    8
CA4
A    9
CA5
A   10
SA2
A   11
OA1
A   12
NA4
A   13
OA2
M  END
>  <Id>  (217) 
3BL0_BL0_A_300

>  <ChainId>  (217) 
A

>  <AsymId>  (217) 
C

>  <SeqNum>  (217) 
300

>  <Name>  (217) 
1-[5-(dimethylamino)-1,3,4-thiadiazol-2-yl]methanesulfonamide

>  <SystematicName>  (217) 
(5-dimethylamino-1,3,4-thiadiazol-2-yl)methanesulfonamide

>  <Synonyms>  (217) 
2-N,N-Dimethylamino-1,3,4-thiadiazole-5-methanesulfonamide

>  <Type>  (217) 
NON-POLYMER

>  <Formula>  (217) 
C5 H10 N4 O2 S2

>  <ObservedFormula>  (217) 
C5 S2 N4 O2

>  <MolecularWeight>  (217) 
222.288

>  <ModifiedDate>  (217) 
2011-06-04

>  <Parent>  (217) 


>  <OneLetterCode>  (217) 


>  <SubcomponentList>  (217) 


>  <AmbiguousFlag>  (217) 
N

>  <InsertionCode>  (217) 


>  <InstanceId>  (217) 
3BL0_BL0_A_300

>  <ChemCompId>  (217) 
BL0

>  <PdbId>  (217) 
3BL0

>  <ResidueNumber>  (217) 
300

>  <InChI>  (217) 
InChI=1S/C5H10N4O2S2/c1-9(2)5-8-7-4(12-5)3-13(6,10)11/h3H2,1-2H3,(H2,6,10,11)

>  <InChIKey>  (217) 
HZGQWVQLUYIYQA-UHFFFAOYSA-N

>  <SMILES>  (217) 
CN(C)c1nnc(s1)CS(=O)(=O)N

>  <MissingHeavyAtoms>  (217) 
0

>  <Model>  (217) 
1

>  <AltIds>  (217) 


>  <pKI>  (217) 
6.92

>  <ChemblID>  (217) 
-

>  <standardized_canonical_smiles>  (217) 
CN(C)c1nnc(CS(N)(=O)=O)s1

$$$$
5NXP_9DH_A_302
     RDKit          3D

 22 23  0  0  0  0  0  0  0  0999 V2000
   -5.6220    6.0360   14.6950 C   0  0  0  0  0  0  0  0  0  0  0  0
   -6.1260    4.9490   15.4380 C   0  0  0  0  0  0  0  0  0  0  0  0
   -5.2930    3.9490   15.9140 C   0  0  0  0  0  0  0  0  0  0  0  0
   -5.8870    2.5660   16.7920 S   0  0  0  0  0  0  0  0  0  0  0  0
   -5.3660    2.6600   18.1490 O   0  0  0  0  0  0  0  0  0  0  0  0
   -7.3600    2.6410   16.6610 O   0  0  0  0  0  0  0  0  0  0  0  0
   -5.3130    1.2950   16.1110 N   0  0  0  0  0  0  0  0  0  0  0  0
   -3.9210    4.0390   15.6240 C   0  0  0  0  0  0  0  0  0  0  0  0
   -3.4170    5.1070   14.8900 C   0  0  0  0  0  0  0  0  0  0  0  0
   -4.2420    6.0890   14.4100 C   0  0  0  0  0  0  0  0  0  0  0  0
   -3.5480    7.0540   13.7280 N   0  0  0  0  0  0  0  0  0  0  0  0
   -4.0740    7.8290   12.7870 C   0  0  0  0  0  0  0  0  0  0  0  0
   -5.2770    7.8810   12.5580 O   0  0  0  0  0  0  0  0  0  0  0  0
   -3.1300    8.7970   12.0190 C   0  0  0  0  0  0  0  0  0  0  0  0
   -1.6400    8.7550   12.2740 N   0  0  0  0  0  0  0  0  0  0  0  0
   -0.7520    7.9190   11.4300 C   0  0  0  0  0  0  0  0  0  0  0  0
   -1.0330    9.6050   13.1290 C   0  0  0  0  0  0  0  0  0  0  0  0
    0.2230   10.2170   12.9040 C   0  0  0  0  0  0  0  0  0  0  0  0
    0.7530   11.1070   13.8380 C   0  0  0  0  0  0  0  0  0  0  0  0
    0.0520   11.4190   15.0020 C   0  0  0  0  0  0  0  0  0  0  0  0
   -1.1780   10.8110   15.2360 C   0  0  0  0  0  0  0  0  0  0  0  0
   -1.7000    9.9300   14.3170 C   0  0  0  0  0  0  0  0  0  0  0  0
  2  1  2  0
 10  1  1  0
  3  2  1  0
  4  3  1  0
  8  3  2  0
  5  4  2  0
  6  4  2  0
  7  4  1  0
  9  8  1  0
 10  9  2  0
 11 10  1  0
 12 11  1  0
 13 12  2  0
 14 12  1  0
 15 14  1  0
 16 15  1  0
 17 15  1  0
 18 17  2  0
 22 17  1  0
 19 18  1  0
 20 19  2  0
 21 20  1  0
 22 21  2  0
A    1
CAH
A    2
CAI
A    3
CAJ
A    4
SAM
A    5
OAN
A    6
OAO
A    7
NAP
A    8
CAK
A    9
CAL
A   10
CAG
A   11
NAF
A   12
C
A   13
O
A   14
CA
A   15
N
A   16
CAA
A   17
CAQ
A   18
CAR
A   19
CAS
A   20
CAT
A   21
CAU
A   22
CAV
M  END
>  <Id>  (218) 
5NXP_9DH_A_302

>  <ChainId>  (218) 
A

>  <AsymId>  (218) 
C

>  <SeqNum>  (218) 
302

>  <Name>  (218) 
2-[methyl(phenyl)amino]-~{N}-(4-sulfamoylphenyl)ethanamide

>  <SystematicName>  (218) 
2-[methyl(phenyl)amino]-~{N}-(4-sulfamoylphenyl)ethanamide

>  <Synonyms>  (218) 


>  <Type>  (218) 
NON-POLYMER

>  <Formula>  (218) 
C15 H17 N3 O3 S

>  <ObservedFormula>  (218) 
C15 S N3 O3

>  <MolecularWeight>  (218) 
319.379

>  <ModifiedDate>  (218) 
2018-01-12

>  <Parent>  (218) 


>  <OneLetterCode>  (218) 


>  <SubcomponentList>  (218) 


>  <AmbiguousFlag>  (218) 
N

>  <InsertionCode>  (218) 


>  <InstanceId>  (218) 
5NXP_9DH_A_302

>  <ChemCompId>  (218) 
9DH

>  <PdbId>  (218) 
5NXP

>  <ResidueNumber>  (218) 
302

>  <InChI>  (218) 
InChI=1S/C15H17N3O3S/c1-18(13-5-3-2-4-6-13)11-15(19)17-12-7-9-14(10-8-12)22(16,20)21/h2-10H,11H2,1H3,(H,17,19)(H2,16,20,21)

>  <InChIKey>  (218) 
MQSDUMCFPHSRSY-UHFFFAOYSA-N

>  <SMILES>  (218) 
CN(CC(=O)Nc1ccc(cc1)S(=O)(=O)N)c2ccccc2

>  <MissingHeavyAtoms>  (218) 
0

>  <Model>  (218) 
1

>  <AltIds>  (218) 


>  <pKI>  (218) 
8.0

>  <ChemblID>  (218) 
-

>  <standardized_canonical_smiles>  (218) 
CN(CC(=O)Nc1ccc(S(N)(=O)=O)cc1)c1ccccc1

$$$$
2X7S_WZC_A_1264
     RDKit          3D

 26 29  0  0  0  0  0  0  0  0999 V2000
   20.1350   33.2220   15.1030 O   0  0  0  0  0  0  0  0  0  0  0  0
   20.0610   34.5840   15.6730 S   0  0  0  0  0  0  0  0  0  0  0  0
   21.4410   35.0610   15.9030 O   0  0  0  0  0  0  0  0  0  0  0  0
   19.4460   35.5590   14.6930 N   0  0  0  0  0  0  0  0  0  0  0  0
   19.2710   34.5690   16.9920 O   0  0  0  0  0  0  0  0  0  0  0  0
   18.8690   35.8060   17.5720 C   0  0  0  0  0  0  0  0  0  0  0  0
   17.3440   35.9650   17.5170 C   0  0  0  0  0  0  0  0  0  0  0  0
   16.9290   36.6660   18.8100 C   0  0  0  0  0  0  0  0  0  0  0  0
   18.2740   37.0540   19.4230 C   0  0  0  0  0  0  0  0  0  0  0  0
   18.3480   37.4950   20.8900 C   0  0  0  0  0  0  0  0  0  0  0  0
   17.3720   38.6400   21.1430 C   0  0  0  0  0  0  0  0  0  0  0  0
   17.5660   39.4180   22.4510 C   0  0  0  0  0  0  0  0  0  0  0  0
   18.9030   39.2110   23.1350 C   0  0  0  0  0  0  0  0  0  0  0  0
   19.0690   39.7190   24.4240 C   0  0  0  0  0  0  0  0  0  0  0  0
   20.2830   39.5520   25.0870 C   0  0  0  0  0  0  0  0  0  0  0  0
   20.4440   40.0490   26.3470 O   0  0  0  0  0  0  0  0  0  0  0  0
   21.3290   38.8810   24.4730 C   0  0  0  0  0  0  0  0  0  0  0  0
   22.5110   38.7370   25.1530 O   0  0  0  0  0  0  0  0  0  0  0  0
   23.6050   37.9810   24.6350 C   0  0  0  0  0  0  0  0  0  0  0  0
   21.1640   38.3710   23.1830 C   0  0  0  0  0  0  0  0  0  0  0  0
   19.9480   38.5290   22.5150 C   0  0  0  0  0  0  0  0  0  0  0  0
   19.7690   38.0060   21.1300 C   0  0  0  0  0  0  0  0  0  0  0  0
   20.8480   36.9890   20.7260 C   0  0  0  0  0  0  0  0  0  0  0  0
   20.6690   36.5450   19.2680 C   0  0  0  0  0  0  0  0  0  0  0  0
   19.2750   35.9720   19.0290 C   0  0  0  0  0  0  0  0  0  0  0  0
   19.1000   34.6500   19.7990 C   0  0  0  0  0  0  0  0  0  0  0  0
  2  1  2  0
  3  2  2  0
  4  2  1  0
  5  2  1  0
  6  5  1  0
  7  6  1  0
 25  6  1  0
  8  7  1  0
  9  8  1  0
 10  9  1  0
 25  9  1  0
 11 10  1  0
 22 10  1  0
 12 11  1  0
 13 12  1  0
 14 13  2  0
 21 13  1  0
 15 14  1  0
 16 15  1  0
 17 15  2  0
 18 17  1  0
 20 17  1  0
 19 18  1  0
 21 20  2  0
 22 21  1  0
 23 22  1  0
 24 23  1  0
 25 24  1  0
 26 25  1  0
A    1
OAD
A    2
SAZ
A    3
OAE
A    4
NAC
A    5
OAP
A    6
CAV
A    7
CAK
A    8
CAM
A    9
CAX
A   10
CAW
A   11
CAJ
A   12
CAI
A   13
CAR
A   14
CAG
A   15
CAQ
A   16
OAF
A   17
CAS
A   18
OAO
A   19
CAA
A   20
CAH
A   21
CAT
A   22
CAU
A   23
CAL
A   24
CAN
A   25
CAY
A   26
CAB
M  END
>  <Id>  (219) 
2X7S_WZC_A_1264

>  <ChainId>  (219) 
A

>  <AsymId>  (219) 
E

>  <SeqNum>  (219) 
1264

>  <Name>  (219) 
(13ALPHA,14BETA,17ALPHA)-3-HYDROXY-2-METHOXYESTRA-1,3,5(10)-TRIEN-17-YL SULFAMATE

>  <SystematicName>  (219) 
[(8R,9S,13S,14S,17S)-3-hydroxy-2-methoxy-13-methyl-6,7,8,9,11,12,14,15,16,17-decahydrocyclopenta[a]phenanthren-17-yl] sulfamate

>  <Synonyms>  (219) 
2-METHOXYESTRADIOL 17-O-SULFAMATE

>  <Type>  (219) 
NON-POLYMER

>  <Formula>  (219) 
C19 H27 N O5 S

>  <ObservedFormula>  (219) 
S C19 N O5

>  <MolecularWeight>  (219) 
381.486

>  <ModifiedDate>  (219) 
2011-06-04

>  <Parent>  (219) 


>  <OneLetterCode>  (219) 


>  <SubcomponentList>  (219) 


>  <AmbiguousFlag>  (219) 
N

>  <InsertionCode>  (219) 


>  <InstanceId>  (219) 
2X7S_WZC_A_1264

>  <ChemCompId>  (219) 
WZC

>  <PdbId>  (219) 
2X7S

>  <ResidueNumber>  (219) 
1264

>  <InChI>  (219) 
InChI=1S/C19H27NO5S/c1-19-8-7-12-13(15(19)5-6-18(19)25-26(20,22)23)4-3-11-9-16(21)17(24-2)10-14(11)12/h9-10,12-13,15,18,21H,3-8H2,1-2H3,(H2,20,22,23)/t12-,13+,15-,18-,19-/m0/s1

>  <InChIKey>  (219) 
AOEHUXLJSHGXHN-SSTWWWIQSA-N

>  <SMILES>  (219) 
C[C@]12CC[C@@H]3c4cc(c(cc4CC[C@H]3[C@@H]1CC[C@@H]2OS(=O)(=O)N)O)OC

>  <MissingHeavyAtoms>  (219) 
0

>  <Model>  (219) 
1

>  <AltIds>  (219) 


>  <pKI>  (219) 
5.78

>  <ChemblID>  (219) 
-

>  <standardized_canonical_smiles>  (219) 
COc1cc2c(cc1O)CC[C@@H]1[C@@H]2CC[C@]2(C)[C@@H](OS(N)(=O)=O)CC[C@@H]12

$$$$
3PO6_DT9_A_262
     RDKit          3D

 19 20  0  0  0  0  0  0  0  0999 V2000
   -3.4630    4.7380    9.5310 C   0  0  0  0  0  0  0  0  0  0  0  0
   -7.3150    7.2130   12.0570 C   0  0  0  0  0  0  0  0  0  0  0  0
   -5.6020    4.2000   16.1210 C   0  0  0  0  0  0  0  0  0  0  0  0
   -5.3570   -0.6010   16.2180 N   0  0  0  0  0  0  0  0  0  0  0  0
   -5.1810    1.4280   17.7960 O   0  0  0  0  0  0  0  0  0  0  0  0
   -7.3630    1.2110   16.8330 O   0  0  0  0  0  0  0  0  0  0  0  0
   -4.5890    3.3020   11.6010 C   0  0  0  0  0  0  0  0  0  0  0  0
   -6.3630    4.7990   13.1350 C   0  0  0  0  0  0  0  0  0  0  0  0
   -4.1670    1.6360   13.4140 C   0  0  0  0  0  0  0  0  0  0  0  0
   -4.1920    1.6420   14.9470 C   0  0  0  0  0  0  0  0  0  0  0  0
   -4.8780    4.8630    9.7830 O   0  0  0  0  0  0  0  0  0  0  0  0
   -6.5970    6.3240   11.2080 O   0  0  0  0  0  0  0  0  0  0  0  0
   -4.8850    2.8850   12.8950 C   0  0  0  0  0  0  0  0  0  0  0  0
   -5.1700    4.4520   11.0660 C   0  0  0  0  0  0  0  0  0  0  0  0
   -6.0530    5.2180   11.8250 C   0  0  0  0  0  0  0  0  0  0  0  0
   -5.7720    3.6500   13.6670 C   0  0  0  0  0  0  0  0  0  0  0  0
   -6.1250    3.2080   15.0950 C   0  0  0  0  0  0  0  0  0  0  0  0
   -5.6230    1.8200   15.2950 N   0  0  0  0  0  0  0  0  0  0  0  0
   -5.9130    0.9810   16.6140 S   0  0  0  0  0  0  0  0  0  0  0  0
 11  1  1  0
 12  2  1  0
 17  3  1  0
 19  4  1  0
 19  5  2  0
 19  6  2  0
 13  7  2  0
 14  7  1  0
 15  8  1  0
 16  8  2  0
 10  9  1  0
 13  9  1  0
 18 10  1  0
 14 11  1  0
 15 12  1  0
 16 13  1  0
 15 14  2  0
 17 16  1  0
 18 17  1  0
 19 18  1  0
A    1
CAA
A    2
CAB
A    3
CAC
A    4
NAD
A    5
OAE
A    6
OAF
A    7
CAG
A    8
CAH
A    9
CAI
A   10
CAJ
A   11
OAK
A   12
OAL
A   13
CAM
A   14
CAN
A   15
CAO
A   16
CAP
A   17
CAQ
A   18
NAR
A   19
SAS
M  END
>  <Id>  (220) 
3PO6_DT9_A_262

>  <ChainId>  (220) 
A

>  <AsymId>  (220) 
C

>  <SeqNum>  (220) 
262

>  <Name>  (220) 
(1S)-6,7-dimethoxy-1-methyl-3,4-dihydroisoquinoline-2(1H)-sulfonamide

>  <SystematicName>  (220) 
(1S,2R)-6,7-dimethoxy-1-methyl-3,4-dihydro-1H-isoquinoline-2-sulfonamide

>  <Synonyms>  (220) 


>  <Type>  (220) 
NON-POLYMER

>  <Formula>  (220) 
C12 H18 N2 O4 S

>  <ObservedFormula>  (220) 
C12 S N2 O4

>  <MolecularWeight>  (220) 
286.347

>  <ModifiedDate>  (220) 
2011-06-04

>  <Parent>  (220) 


>  <OneLetterCode>  (220) 


>  <SubcomponentList>  (220) 


>  <AmbiguousFlag>  (220) 
N

>  <InsertionCode>  (220) 


>  <InstanceId>  (220) 
3PO6_DT9_A_262

>  <ChemCompId>  (220) 
DT9

>  <PdbId>  (220) 
3PO6

>  <ResidueNumber>  (220) 
262

>  <InChI>  (220) 
InChI=1S/C12H18N2O4S/c1-8-10-7-12(18-3)11(17-2)6-9(10)4-5-14(8)19(13,15)16/h6-8H,4-5H2,1-3H3,(H2,13,15,16)/t8-/m0/s1

>  <InChIKey>  (220) 
GUJQIHRSATWPQA-QMMMGPOBSA-N

>  <SMILES>  (220) 
C[C@H]1c2cc(c(cc2CC[N@]1S(=O)(=O)N)OC)OC

>  <MissingHeavyAtoms>  (220) 
0

>  <Model>  (220) 
1

>  <AltIds>  (220) 


>  <pKI>  (220) 
7.06

>  <ChemblID>  (220) 
-

>  <standardized_canonical_smiles>  (220) 
COc1cc2c(cc1OC)[C@H](C)N(S(N)(=O)=O)CC2

$$$$
3IGP_DT7_A_264
     RDKit          3D

 18 19  0  0  0  0  0  0  0  0999 V2000
   15.6680   -1.9880    7.1330 C   0  0  0  0  0  0  0  0  0  0  0  0
   14.1080   -6.3650    9.3620 C   0  0  0  0  0  0  0  0  0  0  0  0
   11.6820   -0.9650   15.6450 N   0  0  0  0  0  0  0  0  0  0  0  0
   10.0680    0.1450   14.0080 O   0  0  0  0  0  0  0  0  0  0  0  0
   10.0270   -2.3630   14.2400 O   0  0  0  0  0  0  0  0  0  0  0  0
   14.1820   -1.7800    9.4140 C   0  0  0  0  0  0  0  0  0  0  0  0
   13.7920   -3.9820   11.0370 C   0  0  0  0  0  0  0  0  0  0  0  0
   12.8820   -0.2660   10.8850 C   0  0  0  0  0  0  0  0  0  0  0  0
   11.7770   -0.3090   11.9280 C   0  0  0  0  0  0  0  0  0  0  0  0
   15.4770   -3.1680    7.9160 O   0  0  0  0  0  0  0  0  0  0  0  0
   15.0730   -5.3300    9.5330 O   0  0  0  0  0  0  0  0  0  0  0  0
   13.4360   -1.6540   10.5810 C   0  0  0  0  0  0  0  0  0  0  0  0
   14.7340   -3.0110    9.0500 C   0  0  0  0  0  0  0  0  0  0  0  0
   14.5240   -4.1190    9.8670 C   0  0  0  0  0  0  0  0  0  0  0  0
   13.2320   -2.7570   11.3940 C   0  0  0  0  0  0  0  0  0  0  0  0
   12.3930   -2.6390   12.6880 C   0  0  0  0  0  0  0  0  0  0  0  0
   12.0780   -1.2240   13.0380 N   0  0  0  0  0  0  0  0  0  0  0  0
   10.8490   -1.1180   14.2290 S   0  0  0  0  0  0  0  0  0  0  0  0
 10  1  1  0
 11  2  1  0
 18  3  1  0
 18  4  2  0
 18  5  2  0
 12  6  2  0
 13  6  1  0
 14  7  1  0
 15  7  2  0
  9  8  1  0
 12  8  1  0
 17  9  1  0
 13 10  1  0
 14 11  1  0
 15 12  1  0
 14 13  2  0
 16 15  1  0
 17 16  1  0
 18 17  1  0
A    1
CAA
A    2
CAB
A    3
NAD
A    4
OAE
A    5
OAF
A    6
CAG
A    7
CAH
A    8
CAI
A    9
CAJ
A   10
OAK
A   11
OAL
A   12
CAM
A   13
CAN
A   14
CAO
A   15
CAP
A   16
CAQ
A   17
NAR
A   18
SAS
M  END
>  <Id>  (221) 
3IGP_DT7_A_264

>  <ChainId>  (221) 
A

>  <AsymId>  (221) 
D

>  <SeqNum>  (221) 
264

>  <Name>  (221) 
6,7-dimethoxy-3,4-dihydroisoquinoline-2(1H)-sulfonamide

>  <SystematicName>  (221) 
(2R)-6,7-dimethoxy-3,4-dihydro-1H-isoquinoline-2-sulfonamide

>  <Synonyms>  (221) 


>  <Type>  (221) 
NON-POLYMER

>  <Formula>  (221) 
C11 H16 N2 O4 S

>  <ObservedFormula>  (221) 
C11 S N2 O4

>  <MolecularWeight>  (221) 
272.321

>  <ModifiedDate>  (221) 
2011-06-04

>  <Parent>  (221) 


>  <OneLetterCode>  (221) 


>  <SubcomponentList>  (221) 


>  <AmbiguousFlag>  (221) 
N

>  <InsertionCode>  (221) 


>  <InstanceId>  (221) 
3IGP_DT7_A_264

>  <ChemCompId>  (221) 
DT7

>  <PdbId>  (221) 
3IGP

>  <ResidueNumber>  (221) 
264

>  <InChI>  (221) 
InChI=1S/C11H16N2O4S/c1-16-10-5-8-3-4-13(18(12,14)15)7-9(8)6-11(10)17-2/h5-6H,3-4,7H2,1-2H3,(H2,12,14,15)

>  <InChIKey>  (221) 
YDCHIXAESCPAOW-UHFFFAOYSA-N

>  <SMILES>  (221) 
COc1cc2c(cc1OC)C[N@@](CC2)S(=O)(=O)N

>  <MissingHeavyAtoms>  (221) 
0

>  <Model>  (221) 
1

>  <AltIds>  (221) 


>  <pKI>  (221) 
7.02

>  <ChemblID>  (221) 
-

>  <standardized_canonical_smiles>  (221) 
COc1cc2c(cc1OC)CN(S(N)(=O)=O)CC2

$$$$
2X7U_WZA_A_1263
     RDKit          3D

 26 29  0  0  0  0  0  0  0  0999 V2000
    2.0780    4.8580  -17.8680 C   0  0  0  0  0  0  0  0  0  0  0  0
    1.6100    7.6880  -19.3780 O   0  0  0  0  0  0  0  0  0  0  0  0
   -0.4850    7.1710  -18.4600 O   0  0  0  0  0  0  0  0  0  0  0  0
    1.2370    3.7880  -18.4550 C   0  0  0  0  0  0  0  0  0  0  0  0
    1.7790    2.5940  -18.8920 C   0  0  0  0  0  0  0  0  0  0  0  0
    3.1370    2.3610  -18.7950 C   0  0  0  0  0  0  0  0  0  0  0  0
    0.9190    7.3540  -18.1810 S   0  0  0  0  0  0  0  0  0  0  0  0
    1.1080    8.5450  -17.1320 N   0  0  0  0  0  0  0  0  0  0  0  0
    1.5310    6.0330  -17.3960 O   0  0  0  0  0  0  0  0  0  0  0  0
    4.0130    3.4010  -18.1940 C   0  0  0  0  0  0  0  0  0  0  0  0
    3.4510    4.6110  -17.7520 C   0  0  0  0  0  0  0  0  0  0  0  0
   -0.0980    3.9070  -18.5740 O   0  0  0  0  0  0  0  0  0  0  0  0
   -0.8100    2.8730  -17.8960 C   0  0  0  0  0  0  0  0  0  0  0  0
    3.6520    1.0560  -19.2750 C   0  0  0  0  0  0  0  0  0  0  0  0
    5.8200    1.6400  -18.0950 C   0  0  0  0  0  0  0  0  0  0  0  0
    5.5060    3.1400  -18.0830 C   0  0  0  0  0  0  0  0  0  0  0  0
    3.0630    0.6460  -20.6320 C   0  0  0  0  0  0  0  0  0  0  0  0
    3.4200   -0.8190  -20.9370 C   0  0  0  0  0  0  0  0  0  0  0  0
    4.9140   -1.0980  -20.7630 C   0  0  0  0  0  0  0  0  0  0  0  0
    5.2380   -2.5660  -20.5550 C   0  0  0  0  0  0  0  0  0  0  0  0
    5.6410   -0.4890  -21.9720 C   0  0  0  0  0  0  0  0  0  0  0  0
    5.3860   -0.5510  -19.4160 C   0  0  0  0  0  0  0  0  0  0  0  0
    6.7480   -1.1950  -19.1610 C   0  0  0  0  0  0  0  0  0  0  0  0
    6.6160   -2.5720  -19.8730 C   0  0  0  0  0  0  0  0  0  0  0  0
    5.1760    0.9620  -19.3030 C   0  0  0  0  0  0  0  0  0  0  0  0
    5.2270   -3.2950  -21.7860 O   0  0  0  0  0  0  0  0  0  0  0  0
  4  1  2  0
  9  1  1  0
 11  1  1  0
  7  2  2  0
  7  3  2  0
  5  4  1  0
 12  4  1  0
  6  5  2  0
 10  6  1  0
 14  6  1  0
  8  7  1  0
  9  7  1  0
 11 10  2  0
 16 10  1  0
 13 12  1  0
 17 14  1  0
 25 14  1  0
 16 15  1  0
 25 15  1  0
 18 17  1  0
 19 18  1  0
 20 19  1  0
 21 19  1  0
 22 19  1  0
 24 20  1  0
 26 20  1  0
 23 22  1  0
 25 22  1  0
 24 23  1  0
A    1
C1
A    2
O1
A    3
O2
A    4
C2
A    5
C3
A    6
C4
A    7
S1
A    8
N1
A    9
O3
A   10
C5
A   11
C6
A   12
O4
A   13
C7
A   14
C8
A   15
C10
A   16
C11
A   17
C12
A   18
C13
A   19
C14
A   20
C15
A   21
C16
A   22
C17
A   23
C18
A   24
C19
A   25
CAW
A   26
OAF
M  END
>  <Id>  (222) 
2X7U_WZA_A_1263

>  <ChainId>  (222) 
A

>  <AsymId>  (222) 
D

>  <SeqNum>  (222) 
1263

>  <Name>  (222) 
(9BETA,14BETA,17BETA)-17-HYDROXY-2-METHOXYESTRA-1,3,5(10)-TRIEN-3-YL SULFAMATE

>  <SystematicName>  (222) 
[(8R,9S,13S,14S,17S)-17-hydroxy-2-methoxy-13-methyl-6,7,8,9,11,12,14,15,16,17-decahydrocyclopenta[a]phenanthren-3-yl] sulfamate

>  <Synonyms>  (222) 


>  <Type>  (222) 
non-polymer

>  <Formula>  (222) 
C19 H27 N O5 S

>  <ObservedFormula>  (222) 
C19 S N O5

>  <MolecularWeight>  (222) 
381.486

>  <ModifiedDate>  (222) 
2011-06-04

>  <Parent>  (222) 


>  <OneLetterCode>  (222) 


>  <SubcomponentList>  (222) 


>  <AmbiguousFlag>  (222) 
N

>  <InsertionCode>  (222) 


>  <InstanceId>  (222) 
2X7U_WZA_A_1263

>  <ChemCompId>  (222) 
WZA

>  <PdbId>  (222) 
2X7U

>  <ResidueNumber>  (222) 
1263

>  <InChI>  (222) 
InChI=1S/C19H27NO5S/c1-19-8-7-12-13(15(19)5-6-18(19)21)4-3-11-9-17(25-26(20,22)23)16(24-2)10-14(11)12/h9-10,12-13,15,18,21H,3-8H2,1-2H3,(H2,20,22,23)/t12-,13+,15-,18-,19-/m0/s1

>  <InChIKey>  (222) 
RWIXFHUXVURZCZ-SSTWWWIQSA-N

>  <SMILES>  (222) 
C[C@]12CC[C@@H]3c4cc(c(cc4CC[C@H]3[C@@H]1CC[C@@H]2O)OS(=O)(=O)N)OC

>  <MissingHeavyAtoms>  (222) 
0

>  <Model>  (222) 
1

>  <AltIds>  (222) 


>  <pKI>  (222) 
5.27

>  <ChemblID>  (222) 
-

>  <standardized_canonical_smiles>  (222) 
COc1cc2c(cc1OS(N)(=O)=O)CC[C@@H]1[C@@H]2CC[C@]2(C)[C@@H](O)CC[C@@H]12

$$$$
4Z1E_DF5_A_302
     RDKit          3D

 24 26  0  0  0  0  0  0  0  0999 V2000
   13.8330    2.7250   16.7940 O   0  0  0  0  0  0  0  0  0  0  0  0
   15.2310    2.6230   16.8670 S   0  0  0  0  0  0  0  0  0  0  0  0
   15.7710    2.7470   18.1820 O   0  0  0  0  0  0  0  0  0  0  0  0
   15.6150    1.2870   16.0930 N   0  0  0  0  0  0  0  0  0  0  0  0
   15.8100    3.9040   15.9110 C   0  0  0  0  0  0  0  0  0  0  0  0
   17.1320    3.9870   15.4320 C   0  0  0  0  0  0  0  0  0  0  0  0
   14.9310    4.9620   15.5800 C   0  0  0  0  0  0  0  0  0  0  0  0
   15.3320    6.0300   14.7830 C   0  0  0  0  0  0  0  0  0  0  0  0
   16.6360    6.0980   14.2940 C   0  0  0  0  0  0  0  0  0  0  0  0
   17.5410    5.0620   14.6160 C   0  0  0  0  0  0  0  0  0  0  0  0
   16.9640    7.3120   13.4530 C   0  0  0  0  0  0  0  0  0  0  0  0
   16.0550    7.9200   12.8220 O   0  0  0  0  0  0  0  0  0  0  0  0
   18.2880    7.8530   13.2920 N   0  0  0  0  0  0  0  0  0  0  0  0
   18.5320    8.7500   12.2050 C   0  0  0  0  0  0  0  0  0  0  0  0
   18.3010    8.3740   10.8540 C   0  0  0  0  0  0  0  0  0  0  0  0
   18.5460    9.2470    9.7840 C   0  0  0  0  0  0  0  0  0  0  0  0
   19.0430   10.5270   10.0480 C   0  0  0  0  0  0  0  0  0  0  0  0
   19.3210   11.4690    9.0770 O   0  0  0  0  0  0  0  0  0  0  0  0
   20.6980   11.5400    8.6230 C   0  0  0  0  0  0  0  0  0  0  0  0
   19.2850   10.9360   11.3720 C   0  0  0  0  0  0  0  0  0  0  0  0
   19.0300   10.0680   12.4460 C   0  0  0  0  0  0  0  0  0  0  0  0
   19.3360   10.5630   13.8150 C   0  0  0  0  0  0  0  0  0  0  0  0
   19.3550    9.5360   14.9070 C   0  0  0  0  0  0  0  0  0  0  0  0
   18.9330    8.1110   14.5680 C   0  0  0  0  0  0  0  0  0  0  0  0
  2  1  2  0
  3  2  2  0
  4  2  1  0
  5  2  1  0
  6  5  2  0
  7  5  1  0
 10  6  1  0
  8  7  2  0
  9  8  1  0
 10  9  2  0
 11  9  1  0
 12 11  2  0
 13 11  1  0
 14 13  1  0
 24 13  2  0
 15 14  2  0
 21 14  1  0
 16 15  1  0
 17 16  2  0
 18 17  1  0
 20 17  1  0
 19 18  1  0
 21 20  2  0
 22 21  1  0
 23 22  2  0
 24 23  1  0
M  CHG  1  13   1
A    1
O2
A    2
S
A    3
O1
A    4
N1
A    5
C2
A    6
C1
A    7
C3
A    8
C4
A    9
C5
A   10
C
A   11
C6
A   12
O
A   13
N
A   14
C10
A   15
C15
A   16
C14
A   17
C13
A   18
O3
A   19
C16
A   20
C12
A   21
C11
A   22
C9
A   23
C8
A   24
C7
M  END
>  <Id>  (223) 
4Z1E_DF5_A_302

>  <ChainId>  (223) 
A

>  <AsymId>  (223) 
C

>  <SeqNum>  (223) 
302

>  <Name>  (223) 
6-methoxy-1-(4-sulfamoylbenzoyl)quinolinium

>  <SystematicName>  (223) 
4-(6-methoxyquinolin-1-ium-1-yl)carbonylbenzenesulfonamide

>  <Synonyms>  (223) 


>  <Type>  (223) 
NON-POLYMER

>  <Formula>  (223) 
C17 H15 N2 O4 S

>  <ObservedFormula>  (223) 
S C17 N2 O4

>  <MolecularWeight>  (223) 
343.377

>  <ModifiedDate>  (223) 
2015-08-21

>  <Parent>  (223) 


>  <OneLetterCode>  (223) 


>  <SubcomponentList>  (223) 


>  <AmbiguousFlag>  (223) 
N

>  <InsertionCode>  (223) 


>  <InstanceId>  (223) 
4Z1E_DF5_A_302

>  <ChemCompId>  (223) 
DF5

>  <PdbId>  (223) 
4Z1E

>  <ResidueNumber>  (223) 
302

>  <InChI>  (223) 
InChI=1S/C17H15N2O4S/c1-23-14-6-9-16-13(11-14)3-2-10-19(16)17(20)12-4-7-15(8-5-12)24(18,21)22/h2-11H,1H3,(H2,18,21,22)/q+1

>  <InChIKey>  (223) 
DUMRKZDLHIONQC-UHFFFAOYSA-N

>  <SMILES>  (223) 
COc1ccc2c(c1)ccc[n+]2C(=O)c3ccc(cc3)S(=O)(=O)N

>  <MissingHeavyAtoms>  (223) 
0

>  <Model>  (223) 
1

>  <AltIds>  (223) 


>  <pKI>  (223) 
8.24

>  <ChemblID>  (223) 
-

>  <standardized_canonical_smiles>  (223) 
COc1ccc2c(ccc[n+]2C(=O)c2ccc(S(N)(=O)=O)cc2)c1

$$$$
1I8Z_INL_A_555
     RDKit          3D

 30 33  0  0  0  0  0  0  0  0999 V2000
   -5.9430    0.6900   16.7430 S   0  0  0  0  0  0  0  0  0  0  0  0
   -5.4330    0.7710   18.0390 O   0  0  0  0  0  0  0  0  0  0  0  0
   -7.3270    0.7100   16.7950 O   0  0  0  0  0  0  0  0  0  0  0  0
   -5.4450   -0.5330   16.1380 N   0  0  0  0  0  0  0  0  0  0  0  0
   -5.4080    1.9220   15.8850 C   0  0  0  0  0  0  0  0  0  0  0  0
   -4.0990    1.9930   15.3380 C   0  0  0  0  0  0  0  0  0  0  0  0
   -3.9320    3.2050   14.5940 C   0  0  0  0  0  0  0  0  0  0  0  0
   -5.1610    3.9930   14.6270 C   0  0  0  0  0  0  0  0  0  0  0  0
   -6.1140    3.1920   15.4520 S   0  0  0  0  0  0  0  0  0  0  0  0
   -2.7850    3.7620   13.8900 C   0  0  0  0  0  0  0  0  0  0  0  0
   -2.7680    5.0980   13.1030 C   0  0  0  0  0  0  0  0  0  0  0  0
   -4.1030    5.8440   13.1700 N   0  0  0  0  0  0  0  0  0  0  0  0
   -5.1930    5.3870   14.0850 S   0  0  0  0  0  0  0  0  0  0  0  0
   -5.0530    6.2980   15.1230 O   0  0  0  0  0  0  0  0  0  0  0  0
   -6.4060    5.5890   13.4820 O   0  0  0  0  0  0  0  0  0  0  0  0
   -1.6680    5.6690   12.2600 C   0  0  0  0  0  0  0  0  0  0  0  0
   -0.9650    8.2270   12.2380 C   0  0  0  0  0  0  0  0  0  0  0  0
   -1.3190    9.6400   12.7770 C   0  0  0  0  0  0  0  0  0  0  0  0
   -1.2940    9.6780   14.3340 O   0  0  0  0  0  0  0  0  0  0  0  0
   -2.1370    8.5850   14.9930 C   0  0  0  0  0  0  0  0  0  0  0  0
   -1.8700    7.1860   14.4570 C   0  0  0  0  0  0  0  0  0  0  0  0
   -1.8960    7.1600   12.8610 N   0  0  0  0  0  0  0  0  0  0  0  0
   -5.2900    7.1760   11.4220 C   0  0  0  0  0  0  0  0  0  0  0  0
   -4.5910    5.9900   11.8120 C   0  0  0  0  0  0  0  0  0  0  0  0
   -4.4490    4.9060   10.8600 C   0  0  0  0  0  0  0  0  0  0  0  0
   -4.9800    4.9620    9.4990 C   0  0  0  0  0  0  0  0  0  0  0  0
   -5.6710    6.2500    9.2340 C   0  0  0  0  0  0  0  0  0  0  0  0
   -5.9010    7.3800   10.1620 C   0  0  0  0  0  0  0  0  0  0  0  0
   -6.6000    8.4870    9.8150 O   0  0  0  0  0  0  0  0  0  0  0  0
   -6.5270    9.9610   10.5910 C   0  0  0  0  0  0  0  0  0  0  0  0
  2  1  2  0
  3  1  2  0
  4  1  1  0
  5  1  1  0
  6  5  2  0
  9  5  1  0
  7  6  1  0
  8  7  2  0
 10  7  1  0
  9  8  1  0
 13  8  1  0
 11 10  2  0
 12 11  1  0
 16 11  1  0
 13 12  1  0
 24 12  1  0
 14 13  2  0
 15 13  2  0
 22 16  1  0
 18 17  1  0
 22 17  1  0
 19 18  1  0
 20 19  1  0
 21 20  1  0
 22 21  1  0
 24 23  2  0
 28 23  1  0
 25 24  1  0
 26 25  2  0
 27 26  1  0
 28 27  2  0
 29 28  1  0
 30 29  1  0
A    1
S1
A    2
O2
A    3
O3
A    4
N4
A    5
C5
A    6
C6
A    7
C7
A    8
C8
A    9
S9
A   10
C10
A   11
C11
A   12
N12
A   13
S13
A   14
O14
A   15
O15
A   16
C16
A   17
C17
A   18
C18
A   19
O19
A   20
C20
A   21
C21
A   22
N22
A   23
C23
A   24
C24
A   25
C25
A   26
C26
A   27
C27
A   28
C28
A   29
O29
A   30
C30
M  END
>  <Id>  (224) 
1I8Z_INL_A_555

>  <ChainId>  (224) 
A

>  <AsymId>  (224) 
D

>  <SeqNum>  (224) 
555

>  <Name>  (224) 
6-[N-(3-METHOXY-PHENYL)-3-(MORPHOLIN-4-YLMETHYL)-2H-THIENO[3,2-E]-1,2-THIAZINE-1,1,-DIOXIDE]-SULFONAMIDE

>  <SystematicName>  (224) 
2-(3-methoxyphenyl)-3-(morpholin-4-ylmethyl)-1,1-dioxo-thieno[4,5-e][1,2]thiazine-6-sulfonamide

>  <Synonyms>  (224) 
AL-6629, [2H-THIENO[3,2-E]-1,2-THIAZINE-6-SULFONAMIDE, 2-(3-METHOXYPHENYL)-3-(4-MORPHOLINYL)-, 1,1-DIOXIDE]

>  <Type>  (224) 
NON-POLYMER

>  <Formula>  (224) 
C18 H21 N3 O6 S3

>  <ObservedFormula>  (224) 
S3 C18 N3 O6

>  <MolecularWeight>  (224) 
471.571

>  <ModifiedDate>  (224) 
2011-06-04

>  <Parent>  (224) 


>  <OneLetterCode>  (224) 


>  <SubcomponentList>  (224) 


>  <AmbiguousFlag>  (224) 
N

>  <InsertionCode>  (224) 


>  <InstanceId>  (224) 
1I8Z_INL_A_555

>  <ChemCompId>  (224) 
INL

>  <PdbId>  (224) 
1I8Z

>  <ResidueNumber>  (224) 
555

>  <InChI>  (224) 
InChI=1S/C18H21N3O6S3/c1-26-16-4-2-3-14(11-16)21-15(12-20-5-7-27-8-6-20)9-13-10-17(29(19,22)23)28-18(13)30(21,24)25/h2-4,9-11H,5-8,12H2,1H3,(H2,19,22,23)

>  <InChIKey>  (224) 
XSUAVPPTKHUTDX-UHFFFAOYSA-N

>  <SMILES>  (224) 
COc1cccc(c1)N2C(=Cc3cc(sc3S2(=O)=O)S(=O)(=O)N)CN4CCOCC4

>  <MissingHeavyAtoms>  (224) 
0

>  <Model>  (224) 
1

>  <AltIds>  (224) 


>  <pKI>  (224) 
9.82

>  <ChemblID>  (224) 
-

>  <standardized_canonical_smiles>  (224) 
COc1cccc(N2C(CN3CCOCC3)=Cc3cc(S(N)(=O)=O)sc3S2(=O)=O)c1

$$$$
3F8E_TE1_A_300
     RDKit          3D

 20 20  0  0  0  0  0  0  0  0999 V2000
   -5.9780    5.2100    9.0840 O   0  0  0  0  0  0  0  0  0  0  0  0
   -6.8020    6.8200   12.8680 O   0  0  0  0  0  0  0  0  0  0  0  0
   -6.7060    8.8200   11.6420 C   0  0  0  0  0  0  0  0  0  0  0  0
   -6.3380    6.7720   10.5380 C   0  0  0  0  0  0  0  0  0  0  0  0
   -4.1430    3.4800   10.3940 C   0  0  0  0  0  0  0  0  0  0  0  0
   -5.1410    6.8110    6.7520 O   0  0  0  0  0  0  0  0  0  0  0  0
   -2.6550    3.5030   10.9140 C   0  0  0  0  0  0  0  0  0  0  0  0
   -6.6340    7.4680   11.7070 C   0  0  0  0  0  0  0  0  0  0  0  0
   -6.5190   10.8060   10.4090 O   0  0  0  0  0  0  0  0  0  0  0  0
   -4.6420    2.0210   10.4280 C   0  0  0  0  0  0  0  0  0  0  0  0
   -6.1350    7.4850    9.3790 C   0  0  0  0  0  0  0  0  0  0  0  0
   -6.2140    5.2550   10.3980 C   0  0  0  0  0  0  0  0  0  0  0  0
   -6.1860    8.8520    9.3200 C   0  0  0  0  0  0  0  0  0  0  0  0
   -5.5020    9.1520    6.8550 C   0  0  0  0  0  0  0  0  0  0  0  0
   -5.0700    4.4540   11.1960 C   0  0  0  0  0  0  0  0  0  0  0  0
   -5.2610    7.9100    6.2090 C   0  0  0  0  0  0  0  0  0  0  0  0
   -6.4820    9.4830   10.4670 C   0  0  0  0  0  0  0  0  0  0  0  0
   -7.5360    7.3980   13.8050 C   0  0  0  0  0  0  0  0  0  0  0  0
   -4.9770    7.9510    5.0480 O   0  0  0  0  0  0  0  0  0  0  0  0
   -6.0060    9.5860    8.1240 C   0  0  0  0  0  0  0  0  0  0  0  0
 13 20  1  0
 17  9  1  0
  5 15  1  0
 11 13  2  0
 13 17  1  0
 12  4  1  0
  4  8  2  0
  6 16  1  0
 10  5  1  0
  2 18  1  0
  1 12  1  0
 16 14  1  0
 14 20  2  0
  3 17  2  0
  8  3  1  0
  4 11  1  0
  7  5  1  0
 15 12  1  0
 19 16  2  0
  2  8  1  0
A    1
OAB
A    2
OAC
A    3
CAK
A    4
CAI
A    5
CAF
A    6
OAL
A    7
CAA
A    8
CAJ
A    9
OAR
A   10
CAE
A   11
CAO
A   12
CAH
A   13
CAP
A   14
CAS
A   15
CAG
A   16
CAN
A   17
CAQ
A   18
CAD
A   19
OAM
A   20
CAT
M  END
>  <InstanceId>  (225) 
3F8E_TE1

>  <ChemCompId>  (225) 
TE1

>  <PdbId>  (225) 
3F8E

>  <ChainId>  (225) 
A

>  <ResidueNumber>  (225) 
300

>  <InsertionCode>  (225) 
null

>  <Model>  (225) 
1

>  <AltIds>  (225) 


>  <MissingHeavyAtoms>  (225) 
0

>  <ObservedFormula>  (225) 
C15 O5

>  <AsymId>  (225) 
E

>  <SeqNum>  (225) 
300

>  <Name>  (225) 
(2Z)-3-{2-hydroxy-5-[(1S)-1-hydroxy-3-methylbutyl]-4-methoxyphenyl}prop-2-enoic acid

>  <SystematicName>  (225) 
(Z)-3-[2-hydroxy-5-[(1S)-1-hydroxy-3-methyl-butyl]-4-methoxy-phenyl]prop-2-enoic acid

>  <Synonyms>  (225) 


>  <Type>  (225) 
NON-POLYMER

>  <Formula>  (225) 
C15 H20 O5

>  <MolecularWeight>  (225) 
280.316

>  <ModifiedDate>  (225) 
2011-06-04

>  <Parent>  (225) 


>  <OneLetterCode>  (225) 


>  <SubcomponentList>  (225) 


>  <AmbiguousFlag>  (225) 
N

>  <InChI>  (225) 
InChI=1S/C15H20O5/c1-9(2)6-13(17)11-7-10(4-5-15(18)19)12(16)8-14(11)20-3/h4-5,7-9,13,16-17H,6H2,1-3H3,(H,18,19)/b5-4-/t13-/m0/s1

>  <InChIKey>  (225) 
KXEZMFMTEVLUPQ-ZFDPJTLLSA-N

>  <SMILES>  (225) 
CC(C)C[C@@H](c1cc(c(cc1OC)O)/C=C\C(=O)O)O

>  <pKI>  (225) 
7.23

>  <ChemblID>  (225) 
-

>  <standardized_canonical_smiles>  (225) 
COc1cc(O)c(/C=C\C(=O)O)cc1[C@@H](O)CC(C)C

$$$$
3T5Z_B09_A_263
     RDKit          3D

 12 12  0  0  0  0  0  0  0  0999 V2000
   -5.0020    2.3430   14.5830 C   0  0  0  0  0  0  0  0  0  0  0  0
   -5.7370    0.0140   15.9730 N   0  0  0  0  0  0  0  0  0  0  0  0
   -3.4340    0.9100   16.1640 O   0  0  0  0  0  0  0  0  0  0  0  0
   -4.4640    0.7670   15.1930 S   0  0  0  0  0  0  0  0  0  0  0  0
   -5.0980    2.5760   13.1740 C   0  0  0  0  0  0  0  0  0  0  0  0
   -4.1220   -0.0600   14.0670 O   0  0  0  0  0  0  0  0  0  0  0  0
   -5.5420    3.8680   12.7670 C   0  0  0  0  0  0  0  0  0  0  0  0
   -5.6970    0.2660   17.3780 O   0  0  0  0  0  0  0  0  0  0  0  0
   -5.8810    4.8960   13.6630 C   0  0  0  0  0  0  0  0  0  0  0  0
   -5.7710    4.6240   15.0260 C   0  0  0  0  0  0  0  0  0  0  0  0
   -5.3380    3.3680   15.5290 C   0  0  0  0  0  0  0  0  0  0  0  0
   -6.8490    1.0760   17.7440 C   0  0  0  0  0  0  0  0  0  0  0  0
  4  1  1  0
  5  1  2  0
 11  1  1  0
  4  2  1  0
  8  2  1  0
  4  3  2  0
  6  4  2  0
  7  5  1  0
  9  7  2  0
 12  8  1  0
 10  9  1  0
 11 10  2  0
A    1
C1
A    2
N1
A    3
O1
A    4
S1
A    5
C2
A    6
O2
A    7
C3
A    8
O3
A    9
C4
A   10
C5
A   11
C6
A   12
C7
M  END
>  <Id>  (226) 
3T5Z_B09_A_263

>  <ChainId>  (226) 
A

>  <AsymId>  (226) 
C

>  <SeqNum>  (226) 
263

>  <Name>  (226) 
N-methoxybenzenesulfonamide

>  <SystematicName>  (226) 
N-methoxybenzenesulfonamide

>  <Synonyms>  (226) 


>  <Type>  (226) 
NON-POLYMER

>  <Formula>  (226) 
C7 H9 N O3 S

>  <ObservedFormula>  (226) 
C7 S N O3

>  <MolecularWeight>  (226) 
187.216

>  <ModifiedDate>  (226) 
2012-06-15

>  <Parent>  (226) 


>  <OneLetterCode>  (226) 


>  <SubcomponentList>  (226) 


>  <AmbiguousFlag>  (226) 
N

>  <InsertionCode>  (226) 


>  <InstanceId>  (226) 
3T5Z_B09_A_263

>  <ChemCompId>  (226) 
B09

>  <PdbId>  (226) 
3T5Z

>  <ResidueNumber>  (226) 
263

>  <InChI>  (226) 
InChI=1S/C7H9NO3S/c1-11-8-12(9,10)7-5-3-2-4-6-7/h2-6,8H,1H3

>  <InChIKey>  (226) 
ARFKGONNPZNFOM-UHFFFAOYSA-N

>  <SMILES>  (226) 
CONS(=O)(=O)c1ccccc1

>  <MissingHeavyAtoms>  (226) 
0

>  <Model>  (226) 
1

>  <AltIds>  (226) 


>  <pKI>  (226) 
5.05

>  <ChemblID>  (226) 
-

>  <standardized_canonical_smiles>  (226) 
CONS(=O)(=O)c1ccccc1

$$$$
6C7X_EO7_A_302
     RDKit          3D

 24 26  0  0  0  0  0  0  0  0999 V2000
   -1.7740    5.4330   12.6740 C   0  0  0  0  0  0  0  0  0  0  0  0
   -0.7110    7.2380   12.9360 C   0  0  0  0  0  0  0  0  0  0  0  0
   -1.9030    7.3760   13.5970 C   0  0  0  0  0  0  0  0  0  0  0  0
    0.2190    8.2550   12.9210 C   0  0  0  0  0  0  0  0  0  0  0  0
   -1.2950    9.3740   14.1630 C   0  0  0  0  0  0  0  0  0  0  0  0
   -4.8080    3.7940   12.9950 C   0  0  0  0  0  0  0  0  0  0  0  0
   -4.8780    5.3270   12.8520 C   0  0  0  0  0  0  0  0  0  0  0  0
   -4.8430    3.7190   14.4710 C   0  0  0  0  0  0  0  0  0  0  0  0
   -3.9470    5.8100   13.8890 C   0  0  0  0  0  0  0  0  0  0  0  0
   -4.2210    2.4340   14.9440 C   0  0  0  0  0  0  0  0  0  0  0  0
   -0.6450    6.0100   12.3600 N   0  0  0  0  0  0  0  0  0  0  0  0
   -2.2710    8.4620   14.2480 N   0  0  0  0  0  0  0  0  0  0  0  0
   -0.0940    9.3740   13.5840 N   0  0  0  0  0  0  0  0  0  0  0  0
   -2.6120    6.2150   13.4100 N   0  0  0  0  0  0  0  0  0  0  0  0
    1.4330    8.0870   12.2500 N   0  0  0  0  0  0  0  0  0  0  0  0
   -5.3550   -0.1940   16.3290 N   0  0  0  0  0  0  0  0  0  0  0  0
   -5.3180    1.4370   18.2180 O   0  0  0  0  0  0  0  0  0  0  0  0
   -6.8220    1.8380   16.3340 O   0  0  0  0  0  0  0  0  0  0  0  0
   -3.9110    4.7580   14.8290 O   0  0  0  0  0  0  0  0  0  0  0  0
   -5.9140    3.1550   12.4230 O   0  0  0  0  0  0  0  0  0  0  0  0
   -6.1810    5.8570   13.2330 O   0  0  0  0  0  0  0  0  0  0  0  0
   -4.4020    2.1430   16.2740 O   0  0  0  0  0  0  0  0  0  0  0  0
   -5.6260    1.2880   16.8420 S   0  0  0  0  0  0  0  0  0  0  0  0
   -1.6330   10.8340   14.9600 Cl  0  0  0  0  0  0  0  0  0  0  0  0
 11  1  2  0
 14  1  1  0
  3  2  2  0
  4  2  1  0
 11  2  1  0
 12  3  1  0
 14  3  1  0
 13  4  2  0
 15  4  1  0
 12  5  2  0
 13  5  1  0
 24  5  1  0
  7  6  1  0
  8  6  1  0
 20  6  1  0
  9  7  1  0
 21  7  1  0
 10  8  1  0
 19  8  1  0
 14  9  1  0
 19  9  1  0
 22 10  1  0
 23 16  1  0
 23 17  2  0
 23 18  2  0
 23 22  1  0
A    1
C19
A    2
C22
A    3
C21
A    4
C23
A    5
C26
A    6
C4
A    7
C2
A    8
C7
A    9
C16
A   10
C9
A   11
N20
A   12
N28
A   13
N25
A   14
N18
A   15
N24
A   16
N13
A   17
O12
A   18
O14
A   19
O15
A   20
O6
A   21
O1
A   22
O10
A   23
S11
A   24
CL
M  END
>  <Id>  (227) 
6C7X_EO7_A_302

>  <ChainId>  (227) 
A

>  <AsymId>  (227) 
C

>  <SeqNum>  (227) 
302

>  <Name>  (227) 
2-chloro-5'-O-sulfamoyladenosine

>  <SystematicName>  (227) 
[(2~{R},3~{S},4~{R},5~{R})-5-(6-azanyl-2-chloranyl-purin-9-yl)-3,4-bis(oxidanyl)oxolan-2-yl]methyl sulfamate

>  <Synonyms>  (227) 


>  <Type>  (227) 
NON-POLYMER

>  <Formula>  (227) 
C10 H13 Cl N6 O6 S

>  <ObservedFormula>  (227) 
C10 S Cl N6 O6

>  <MolecularWeight>  (227) 
380.765

>  <ModifiedDate>  (227) 
2018-05-18

>  <Parent>  (227) 


>  <OneLetterCode>  (227) 


>  <SubcomponentList>  (227) 


>  <AmbiguousFlag>  (227) 
N

>  <InsertionCode>  (227) 


>  <InstanceId>  (227) 
6C7X_EO7_A_302

>  <ChemCompId>  (227) 
EO7

>  <PdbId>  (227) 
6C7X

>  <ResidueNumber>  (227) 
302

>  <InChI>  (227) 
InChI=1S/C10H13ClN6O6S/c11-10-15-7(12)4-8(16-10)17(2-14-4)9-6(19)5(18)3(23-9)1-22-24(13,20)21/h2-3,5-6,9,18-19H,1H2,(H2,12,15,16)(H2,13,20,21)/t3-,5-,6-,9-/m1/s1

>  <InChIKey>  (227) 
JHUGCRSKMUFKHR-UUOKFMHZSA-N

>  <SMILES>  (227) 
c1nc2c(nc(nc2n1[C@H]3[C@@H]([C@@H]([C@H](O3)COS(=O)(=O)N)O)O)Cl)N

>  <MissingHeavyAtoms>  (227) 
0

>  <Model>  (227) 
1

>  <AltIds>  (227) 


>  <pKI>  (227) 
7.19

>  <ChemblID>  (227) 
-

>  <standardized_canonical_smiles>  (227) 
Nc1nc(Cl)nc2c1ncn2[C@@H]1O[C@H](COS(N)(=O)=O)[C@@H](O)[C@H]1O

$$$$
6C7W_LMS_A_302
     RDKit          3D

 23 25  0  0  0  0  0  0  0  0999 V2000
   -2.7230    6.3490   13.6850 N   0  0  0  0  0  0  0  0  0  0  0  0
   -1.8660    5.7570   12.8100 C   0  0  0  0  0  0  0  0  0  0  0  0
   -0.7820    6.4440   12.5980 N   0  0  0  0  0  0  0  0  0  0  0  0
   -0.9250    7.5600   13.4110 C   0  0  0  0  0  0  0  0  0  0  0  0
   -0.1290    8.6680   13.6850 C   0  0  0  0  0  0  0  0  0  0  0  0
    1.0920    8.8410   13.0810 N   0  0  0  0  0  0  0  0  0  0  0  0
   -0.5370    9.5710   14.5560 N   0  0  0  0  0  0  0  0  0  0  0  0
   -1.7240    9.3850   15.1360 C   0  0  0  0  0  0  0  0  0  0  0  0
   -2.5880    8.3860   14.9790 N   0  0  0  0  0  0  0  0  0  0  0  0
   -2.1190    7.5100   14.0890 C   0  0  0  0  0  0  0  0  0  0  0  0
   -5.2670   -0.1970   16.2610 N   0  0  0  0  0  0  0  0  0  0  0  0
   -5.5440    1.2180   16.8770 S   0  0  0  0  0  0  0  0  0  0  0  0
   -5.3280    1.2630   18.2760 O   0  0  0  0  0  0  0  0  0  0  0  0
   -6.7480    1.7370   16.3490 O   0  0  0  0  0  0  0  0  0  0  0  0
   -4.3330    2.1480   16.3910 O   0  0  0  0  0  0  0  0  0  0  0  0
   -4.1760    2.3760   14.9810 C   0  0  0  0  0  0  0  0  0  0  0  0
   -4.7580    3.7160   14.5640 C   0  0  0  0  0  0  0  0  0  0  0  0
   -3.8630    4.7360   14.9670 O   0  0  0  0  0  0  0  0  0  0  0  0
   -4.8530    3.8940   13.0790 C   0  0  0  0  0  0  0  0  0  0  0  0
   -5.9970    3.2370   12.5050 O   0  0  0  0  0  0  0  0  0  0  0  0
   -4.9630    5.3950   12.9640 C   0  0  0  0  0  0  0  0  0  0  0  0
   -6.3040    5.8180   13.1910 O   0  0  0  0  0  0  0  0  0  0  0  0
   -4.0420    5.8540   14.1020 C   0  0  0  0  0  0  0  0  0  0  0  0
  2  1  1  0
 10  1  1  0
 23  1  1  0
  3  2  2  0
  4  3  1  0
  5  4  1  0
 10  4  2  0
  6  5  1  0
  7  5  2  0
  8  7  1  0
  9  8  2  0
 10  9  1  0
 12 11  1  0
 13 12  2  0
 14 12  2  0
 15 12  1  0
 16 15  1  0
 17 16  1  0
 18 17  1  0
 19 17  1  0
 23 18  1  0
 20 19  1  0
 21 19  1  0
 22 21  1  0
 23 21  1  0
A    1
N9
A    2
C8
A    3
N7
A    4
C5
A    5
C6
A    6
N6
A    7
N1
A    8
C2
A    9
N3
A   10
C4
A   11
N
A   12
S
A   13
O1P
A   14
O2P
A   15
O5'
A   16
C5'
A   17
C4'
A   18
O4'
A   19
C3'
A   20
O3'
A   21
C2'
A   22
O2'
A   23
C1'
M  END
>  <Id>  (228) 
6C7W_LMS_A_302

>  <ChainId>  (228) 
A

>  <AsymId>  (228) 
C

>  <SeqNum>  (228) 
302

>  <Name>  (228) 
[(2R,3S,4R,5R)-5-(6-AMINO-9H-PURIN-9-YL)-3,4-DIHYDROXYTETRAHYDRO-2-FURANYL]METHYL SULFAMATE

>  <SystematicName>  (228) 
[(2R,3S,4R,5R)-5-(6-aminopurin-9-yl)-3,4-dihydroxy-oxolan-2-yl]methyl sulfamate

>  <Synonyms>  (228) 


>  <Type>  (228) 
RNA LINKING

>  <Formula>  (228) 
C10 H14 N6 O6 S

>  <ObservedFormula>  (228) 
C10 S N6 O6

>  <MolecularWeight>  (228) 
346.32

>  <ModifiedDate>  (228) 
2011-06-04

>  <Parent>  (228) 


>  <OneLetterCode>  (228) 
N

>  <SubcomponentList>  (228) 


>  <AmbiguousFlag>  (228) 
N

>  <InsertionCode>  (228) 


>  <InstanceId>  (228) 
6C7W_LMS_A_302

>  <ChemCompId>  (228) 
LMS

>  <PdbId>  (228) 
6C7W

>  <ResidueNumber>  (228) 
302

>  <InChI>  (228) 
InChI=1S/C10H14N6O6S/c11-8-5-9(14-2-13-8)16(3-15-5)10-7(18)6(17)4(22-10)1-21-23(12,19)20/h2-4,6-7,10,17-18H,1H2,(H2,11,13,14)(H2,12,19,20)/t4-,6-,7-,10-/m1/s1

>  <InChIKey>  (228) 
GNZLUJQJDPRUTD-KQYNXXCUSA-N

>  <SMILES>  (228) 
c1nc(c2c(n1)n(cn2)[C@H]3[C@@H]([C@@H]([C@H](O3)COS(=O)(=O)N)O)O)N

>  <MissingHeavyAtoms>  (228) 
0

>  <Model>  (228) 
1

>  <AltIds>  (228) 


>  <pKI>  (228) 
5.47

>  <ChemblID>  (228) 
-

>  <standardized_canonical_smiles>  (228) 
Nc1ncnc2c1ncn2[C@@H]1O[C@H](COS(N)(=O)=O)[C@@H](O)[C@H]1O

$$$$
6B59_CQS_A_302
     RDKit          3D

 26 28  0  0  0  0  0  0  0  0999 V2000
   -1.4820    8.4730   14.0990 C   0  0  0  0  0  0  0  0  0  0  0  0
   -1.0110    9.2830   12.9390 C   0  0  0  0  0  0  0  0  0  0  0  0
   -2.0320   11.4480   13.1060 C   0  0  0  0  0  0  0  0  0  0  0  0
   -0.6020   12.2780   14.4730 C   0  0  0  0  0  0  0  0  0  0  0  0
   -0.2680   11.0200   14.1880 C   0  0  0  0  0  0  0  0  0  0  0  0
    0.2470   12.9460   15.3410 C   0  0  0  0  0  0  0  0  0  0  0  0
   -6.0760    3.5380   15.6450 C   0  0  0  0  0  0  0  0  0  0  0  0
   -5.5530    4.5690   14.9240 C   0  0  0  0  0  0  0  0  0  0  0  0
   -4.2590    4.5210   14.5650 C   0  0  0  0  0  0  0  0  0  0  0  0
   -3.4620    3.4770   14.8870 C   0  0  0  0  0  0  0  0  0  0  0  0
   -3.9930    2.4650   15.6020 C   0  0  0  0  0  0  0  0  0  0  0  0
   -5.2820    2.5060   15.9840 C   0  0  0  0  0  0  0  0  0  0  0  0
   -3.7070    5.6610   13.7310 C   0  0  0  0  0  0  0  0  0  0  0  0
   -2.9870    6.6800   14.5580 C   0  0  0  0  0  0  0  0  0  0  0  0
    1.5470   11.1340   15.4920 C   0  0  0  0  0  0  0  0  0  0  0  0
   -2.4210    7.5900   13.6400 N   0  0  0  0  0  0  0  0  0  0  0  0
   -1.1560   10.5720   13.3880 N   0  0  0  0  0  0  0  0  0  0  0  0
   -1.7150   12.5340   13.7440 N   0  0  0  0  0  0  0  0  0  0  0  0
    1.2880   12.3620   15.8100 N   0  0  0  0  0  0  0  0  0  0  0  0
    0.8280   10.4630   14.7030 N   0  0  0  0  0  0  0  0  0  0  0  0
    0.0360   14.2950   15.7630 N   0  0  0  0  0  0  0  0  0  0  0  0
   -5.1690   -0.2550   16.3590 N   0  0  0  0  0  0  0  0  0  0  0  0
   -1.1490    8.6340   15.1780 O   0  0  0  0  0  0  0  0  0  0  0  0
   -5.4480    1.2760   18.1840 O   0  0  0  0  0  0  0  0  0  0  0  0
   -7.2100    1.1260   16.8780 O   0  0  0  0  0  0  0  0  0  0  0  0
   -5.9250    1.0860   16.9440 S   0  0  0  0  0  0  0  0  0  0  0  0
  2  1  1  0
 16  1  1  0
 23  1  2  0
 17  2  1  0
 17  3  1  0
 18  3  2  0
  5  4  2  0
  6  4  1  0
 18  4  1  0
 17  5  1  0
 20  5  1  0
 19  6  2  0
 21  6  1  0
  8  7  2  0
 12  7  1  0
  9  8  1  0
 10  9  2  0
 13  9  1  0
 11 10  1  0
 12 11  2  0
 26 12  1  0
 14 13  1  0
 16 14  1  0
 19 15  1  0
 20 15  2  0
 26 22  1  0
 26 24  2  0
 26 25  2  0
A    1
C10
A    2
C11
A    3
C14
A    4
C16
A    5
C17
A    6
C18
A    7
C01
A    8
C02
A    9
C03
A   10
C04
A   11
C05
A   12
C06
A   13
C07
A   14
C08
A   15
C20
A   16
N09
A   17
N12
A   18
N15
A   19
N19
A   20
N21
A   21
N22
A   22
N26
A   23
O13
A   24
O24
A   25
O25
A   26
S23
M  END
>  <Id>  (229) 
6B59_CQS_A_302

>  <ChainId>  (229) 
A

>  <AsymId>  (229) 
C

>  <SeqNum>  (229) 
302

>  <Name>  (229) 
2-(6-amino-9H-purin-9-yl)-N-[2-(4-sulfamoylphenyl)ethyl]acetamide

>  <SystematicName>  (229) 
2-(6-aminopurin-9-yl)-~{N}-[2-(4-sulfamoylphenyl)ethyl]ethanamide

>  <Synonyms>  (229) 


>  <Type>  (229) 
NON-POLYMER

>  <Formula>  (229) 
C15 H17 N7 O3 S

>  <ObservedFormula>  (229) 
C15 S N7 O3

>  <MolecularWeight>  (229) 
375.406

>  <ModifiedDate>  (229) 
2018-08-31

>  <Parent>  (229) 


>  <OneLetterCode>  (229) 


>  <SubcomponentList>  (229) 


>  <AmbiguousFlag>  (229) 
N

>  <InsertionCode>  (229) 


>  <InstanceId>  (229) 
6B59_CQS_A_302

>  <ChemCompId>  (229) 
CQS

>  <PdbId>  (229) 
6B59

>  <ResidueNumber>  (229) 
302

>  <InChI>  (229) 
InChI=1S/C15H17N7O3S/c16-14-13-15(20-8-19-14)22(9-21-13)7-12(23)18-6-5-10-1-3-11(4-2-10)26(17,24)25/h1-4,8-9H,5-7H2,(H,18,23)(H2,16,19,20)(H2,17,24,25)

>  <InChIKey>  (229) 
PUMWMJFQZZVYPO-UHFFFAOYSA-N

>  <SMILES>  (229) 
c1cc(ccc1CCNC(=O)Cn2cnc3c2ncnc3N)S(=O)(=O)N

>  <MissingHeavyAtoms>  (229) 
0

>  <Model>  (229) 
1

>  <AltIds>  (229) 


>  <pKI>  (229) 
8.09

>  <ChemblID>  (229) 
-

>  <standardized_canonical_smiles>  (229) 
Nc1ncnc2c1ncn2CC(=O)NCCc1ccc(S(N)(=O)=O)cc1

$$$$
6B5A_CQS_A_302
     RDKit          3D

 26 28  0  0  0  0  0  0  0  0999 V2000
    0.2110    9.2390   82.3670 C   0  0  0  0  0  0  0  0  0  0  0  0
    0.6290   10.3570   81.3190 C   0  0  0  0  0  0  0  0  0  0  0  0
   -0.3180    9.0360   79.5710 C   0  0  0  0  0  0  0  0  0  0  0  0
   -1.8880   10.1690   78.7180 C   0  0  0  0  0  0  0  0  0  0  0  0
   -1.3180   10.9370   79.6860 C   0  0  0  0  0  0  0  0  0  0  0  0
   -2.9650   10.6680   77.9900 C   0  0  0  0  0  0  0  0  0  0  0  0
    0.5560    2.8260   85.3440 C   0  0  0  0  0  0  0  0  0  0  0  0
    0.9740    3.9380   84.7080 C   0  0  0  0  0  0  0  0  0  0  0  0
    0.1170    4.9230   84.3170 C   0  0  0  0  0  0  0  0  0  0  0  0
   -1.2260    4.7530   84.5850 C   0  0  0  0  0  0  0  0  0  0  0  0
   -1.6560    3.6250   85.2480 C   0  0  0  0  0  0  0  0  0  0  0  0
   -0.7640    2.6870   85.6400 C   0  0  0  0  0  0  0  0  0  0  0  0
    0.6540    6.1820   83.5750 C   0  0  0  0  0  0  0  0  0  0  0  0
    0.4720    7.5370   84.2290 C   0  0  0  0  0  0  0  0  0  0  0  0
   -2.8350   12.5860   79.1800 C   0  0  0  0  0  0  0  0  0  0  0  0
    1.0570    8.5960   83.4070 N   0  0  0  0  0  0  0  0  0  0  0  0
   -0.2910   10.2140   80.1780 N   0  0  0  0  0  0  0  0  0  0  0  0
   -1.3040    8.9920   78.6930 N   0  0  0  0  0  0  0  0  0  0  0  0
   -3.3930   11.8790   78.2300 N   0  0  0  0  0  0  0  0  0  0  0  0
   -1.8310   12.1560   79.8810 N   0  0  0  0  0  0  0  0  0  0  0  0
   -3.5320    9.7890   77.0080 N   0  0  0  0  0  0  0  0  0  0  0  0
   -0.6550   -0.0940   85.8430 N   0  0  0  0  0  0  0  0  0  0  0  0
   -0.8670    8.8740   82.3010 O   0  0  0  0  0  0  0  0  0  0  0  0
   -0.9880    1.2970   87.8150 O   0  0  0  0  0  0  0  0  0  0  0  0
   -2.6360    1.2450   86.4450 O   0  0  0  0  0  0  0  0  0  0  0  0
   -1.4020    1.2060   86.5110 S   0  0  0  0  0  0  0  0  0  0  0  0
  2  1  1  0
 16  1  1  0
 23  1  2  0
 17  2  1  0
 17  3  1  0
 18  3  2  0
  5  4  2  0
  6  4  1  0
 18  4  1  0
 17  5  1  0
 20  5  1  0
 19  6  2  0
 21  6  1  0
  8  7  2  0
 12  7  1  0
  9  8  1  0
 10  9  2  0
 13  9  1  0
 11 10  1  0
 12 11  2  0
 26 12  1  0
 14 13  1  0
 16 14  1  0
 19 15  1  0
 20 15  2  0
 26 22  1  0
 26 24  2  0
 26 25  2  0
A    1
C10
A    2
C11
A    3
C14
A    4
C16
A    5
C17
A    6
C18
A    7
C01
A    8
C02
A    9
C03
A   10
C04
A   11
C05
A   12
C06
A   13
C07
A   14
C08
A   15
C20
A   16
N09
A   17
N12
A   18
N15
A   19
N19
A   20
N21
A   21
N22
A   22
N26
A   23
O13
A   24
O24
A   25
O25
A   26
S23
M  END
>  <Id>  (230) 
6B5A_CQS_A_302

>  <ChainId>  (230) 
A

>  <AsymId>  (230) 
C

>  <SeqNum>  (230) 
302

>  <Name>  (230) 
2-(6-amino-9H-purin-9-yl)-N-[2-(4-sulfamoylphenyl)ethyl]acetamide

>  <SystematicName>  (230) 
2-(6-aminopurin-9-yl)-~{N}-[2-(4-sulfamoylphenyl)ethyl]ethanamide

>  <Synonyms>  (230) 


>  <Type>  (230) 
NON-POLYMER

>  <Formula>  (230) 
C15 H17 N7 O3 S

>  <ObservedFormula>  (230) 
C15 S N7 O3

>  <MolecularWeight>  (230) 
375.406

>  <ModifiedDate>  (230) 
2018-08-31

>  <Parent>  (230) 


>  <OneLetterCode>  (230) 


>  <SubcomponentList>  (230) 


>  <AmbiguousFlag>  (230) 
N

>  <InsertionCode>  (230) 


>  <InstanceId>  (230) 
6B5A_CQS_A_302

>  <ChemCompId>  (230) 
CQS

>  <PdbId>  (230) 
6B5A

>  <ResidueNumber>  (230) 
302

>  <InChI>  (230) 
InChI=1S/C15H17N7O3S/c16-14-13-15(20-8-19-14)22(9-21-13)7-12(23)18-6-5-10-1-3-11(4-2-10)26(17,24)25/h1-4,8-9H,5-7H2,(H,18,23)(H2,16,19,20)(H2,17,24,25)

>  <InChIKey>  (230) 
PUMWMJFQZZVYPO-UHFFFAOYSA-N

>  <SMILES>  (230) 
c1cc(ccc1CCNC(=O)Cn2cnc3c2ncnc3N)S(=O)(=O)N

>  <MissingHeavyAtoms>  (230) 
0

>  <Model>  (230) 
1

>  <AltIds>  (230) 


>  <pKI>  (230) 
8.09

>  <ChemblID>  (230) 
-

>  <standardized_canonical_smiles>  (230) 
Nc1ncnc2c1ncn2CC(=O)NCCc1ccc(S(N)(=O)=O)cc1

$$$$
5NXW_RA9_A_303
     RDKit          3D

 21 22  0  0  0  0  0  0  0  0999 V2000
    9.8770   -0.4510   14.2130 O   0  0  0  0  0  0  0  0  0  0  0  0
   10.6790    0.7470   14.0560 S   0  0  0  0  0  0  0  0  0  0  0  0
    9.9300    1.9440   13.8090 O   0  0  0  0  0  0  0  0  0  0  0  0
   11.4660    1.0110   15.4570 N   0  0  0  0  0  0  0  0  0  0  0  0
   11.6920    0.4340   12.8210 C   0  0  0  0  0  0  0  0  0  0  0  0
   12.1770    1.3900   11.9080 C   0  0  0  0  0  0  0  0  0  0  0  0
   12.0880   -0.8910   12.6470 C   0  0  0  0  0  0  0  0  0  0  0  0
   12.9340   -1.2660   11.6130 C   0  0  0  0  0  0  0  0  0  0  0  0
   13.4300   -0.3360   10.7140 C   0  0  0  0  0  0  0  0  0  0  0  0
   13.0360    1.0040   10.8590 C   0  0  0  0  0  0  0  0  0  0  0  0
   14.2310   -0.8350    9.7240 N   0  0  0  0  0  0  0  0  0  0  0  0
   14.6340   -0.1290    8.6720 C   0  0  0  0  0  0  0  0  0  0  0  0
   14.4010    1.0550    8.5700 O   0  0  0  0  0  0  0  0  0  0  0  0
   15.4050   -0.8770    7.5920 C   0  0  0  0  0  0  0  0  0  0  0  0
   14.4700   -1.0310    6.0990 S   0  0  0  0  0  0  0  0  0  0  0  0
   14.4340    0.6160    5.5080 C   0  0  0  0  0  0  0  0  0  0  0  0
   13.6860    1.5400    6.1550 N   0  0  0  0  0  0  0  0  0  0  0  0
   15.3480    1.1220    4.1080 S   0  0  0  0  0  0  0  0  0  0  0  0
   14.6430    2.6790    4.4580 C   0  0  0  0  0  0  0  0  0  0  0  0
   13.8080    2.7900    5.5160 N   0  0  0  0  0  0  0  0  0  0  0  0
   14.9130    3.7690    3.6950 N   0  0  0  0  0  0  0  0  0  0  0  0
  2  1  2  0
  3  2  2  0
  4  2  1  0
  5  2  1  0
  6  5  2  0
  7  5  1  0
 10  6  1  0
  8  7  2  0
  9  8  1  0
 10  9  2  0
 11  9  1  0
 12 11  1  0
 13 12  2  0
 14 12  1  0
 15 14  1  0
 16 15  1  0
 17 16  2  0
 18 16  1  0
 20 17  1  0
 19 18  1  0
 20 19  2  0
 21 19  1  0
A    1
O2
A    2
S2
A    3
O1
A    4
N4
A    5
C2
A    6
C1
A    7
C3
A    8
C4
A    9
C5
A   10
C
A   11
N
A   12
C6
A   13
O
A   14
C7
A   15
S
A   16
C8
A   17
N1
A   18
S1
A   19
C9
A   20
N2
A   21
N3
M  END
>  <Id>  (231) 
5NXW_RA9_A_303

>  <ChainId>  (231) 
A

>  <AsymId>  (231) 
D

>  <SeqNum>  (231) 
303

>  <Name>  (231) 
2-[(5-azanyl-1,3,4-thiadiazol-2-yl)sulfanyl]-~{N}-(4-sulfamoylphenyl)ethanamide

>  <SystematicName>  (231) 
2-[(5-azanyl-1,3,4-thiadiazol-2-yl)sulfanyl]-~{N}-(4-sulfamoylphenyl)ethanamide

>  <Synonyms>  (231) 


>  <Type>  (231) 
NON-POLYMER

>  <Formula>  (231) 
C10 H11 N5 O3 S3

>  <ObservedFormula>  (231) 
S3 C10 N5 O3

>  <MolecularWeight>  (231) 
345.421

>  <ModifiedDate>  (231) 
2018-01-12

>  <Parent>  (231) 


>  <OneLetterCode>  (231) 


>  <SubcomponentList>  (231) 


>  <AmbiguousFlag>  (231) 
N

>  <InsertionCode>  (231) 


>  <InstanceId>  (231) 
5NXW_RA9_A_303

>  <ChemCompId>  (231) 
RA9

>  <PdbId>  (231) 
5NXW

>  <ResidueNumber>  (231) 
303

>  <InChI>  (231) 
InChI=1S/C10H11N5O3S3/c11-9-14-15-10(20-9)19-5-8(16)13-6-1-3-7(4-2-6)21(12,17)18/h1-4H,5H2,(H2,11,14)(H,13,16)(H2,12,17,18)

>  <InChIKey>  (231) 
XOOCPGSAGIALAP-UHFFFAOYSA-N

>  <SMILES>  (231) 
c1cc(ccc1NC(=O)CSc2nnc(s2)N)S(=O)(=O)N

>  <MissingHeavyAtoms>  (231) 
0

>  <Model>  (231) 
1

>  <AltIds>  (231) 


>  <pKI>  (231) 
7.24

>  <ChemblID>  (231) 
-

>  <standardized_canonical_smiles>  (231) 
Nc1nnc(SCC(=O)Nc2ccc(S(N)(=O)=O)cc2)s1

$$$$
2ABE_HIS_A_300
     RDKit          3D

 10 10  0  0  0  0  0  0  0  0999 V2000
   -0.0430    4.9180   10.8060 N   0  0  0  0  0  0  0  0  0  0  0  0
   -0.6490    6.2410   10.7100 C   0  0  0  0  0  0  0  0  0  0  0  0
   -0.9760    6.8020   12.0900 C   0  0  0  0  0  0  0  0  0  0  0  0
   -0.1170    7.3860   12.7530 O   0  0  0  0  0  0  0  0  0  0  0  0
   -1.9230    6.1770    9.8610 C   0  0  0  0  0  0  0  0  0  0  0  0
   -2.9410    5.2010   10.3660 C   0  0  0  0  0  0  0  0  0  0  0  0
   -2.6790    3.8550   10.5040 N   0  0  0  0  0  0  0  0  0  0  0  0
   -4.2260    5.3760   10.7580 C   0  0  0  0  0  0  0  0  0  0  0  0
   -3.7570    3.2430   10.9590 C   0  0  0  0  0  0  0  0  0  0  0  0
   -4.7100    4.1430   11.1210 N   0  0  0  0  0  0  0  0  0  0  0  0
  2  1  1  0
  3  2  1  0
  5  2  1  0
  4  3  2  0
  6  5  1  0
  7  6  1  0
  8  6  2  0
  9  7  2  0
 10  8  1  0
 10  9  1  0
M  CHG  1   7   1
A    1
N
A    2
CA
A    3
C
A    4
O
A    5
CB
A    6
CG
A    7
ND1
A    8
CD2
A    9
CE1
A   10
NE2
M  END
>  <Id>  (232) 
2ABE_HIS_A_300

>  <ChainId>  (232) 
A

>  <AsymId>  (232) 
E

>  <SeqNum>  (232) 
300

>  <Name>  (232) 
HISTIDINE

>  <SystematicName>  (232) 
(2S)-2-amino-3-(1H-imidazol-3-ium-4-yl)propanoic acid

>  <Synonyms>  (232) 


>  <Type>  (232) 
L-PEPTIDE LINKING

>  <Formula>  (232) 
C6 H10 N3 O2

>  <ObservedFormula>  (232) 
C6 N3 O

>  <MolecularWeight>  (232) 
156.162

>  <ModifiedDate>  (232) 
2011-06-04

>  <Parent>  (232) 


>  <OneLetterCode>  (232) 
H

>  <SubcomponentList>  (232) 


>  <AmbiguousFlag>  (232) 
N

>  <InsertionCode>  (232) 


>  <InstanceId>  (232) 
2ABE_HIS_A_300

>  <ChemCompId>  (232) 
HIS

>  <PdbId>  (232) 
2ABE

>  <ResidueNumber>  (232) 
300

>  <InChI>  (232) 
InChI=1S/C6H9N3O2/c7-5(6(10)11)1-4-2-8-3-9-4/h2-3,5H,1,7H2,(H,8,9)(H,10,11)/p+1/t5-/m0/s1

>  <InChIKey>  (232) 
HNDVDQJCIGZPNO-YFKPBYRVSA-O

>  <SMILES>  (232) 
c1c([nH+]c[nH]1)C[C@@H](C(=O)O)N

>  <MissingHeavyAtoms>  (232) 
1

>  <Model>  (232) 
1

>  <AltIds>  (232) 


>  <pKI>  (232) 
3.95

>  <ChemblID>  (232) 
-

>  <standardized_canonical_smiles>  (232) 
N[C@H](C=O)Cc1c[nH]c[nH+]1

$$$$
6G3Q_FO9_A_302
     RDKit          3D

 20 20  0  0  0  0  0  0  0  0999 V2000
   -4.3010    3.2640   13.7350 C   0  0  0  0  0  0  0  0  0  0  0  0
   -4.8060    4.6800   13.9410 C   0  0  0  0  0  0  0  0  0  0  0  0
   -2.7620   11.0070   11.9180 N   0  0  0  0  0  0  0  0  0  0  0  0
   -4.9590    1.2780   17.7160 O   0  0  0  0  0  0  0  0  0  0  0  0
   -5.8750    0.8800   16.6790 S   0  0  0  0  0  0  0  0  0  0  0  0
   -7.3020    0.8360   16.8530 O   0  0  0  0  0  0  0  0  0  0  0  0
   -5.3060   -0.4980   16.0610 N   0  0  0  0  0  0  0  0  0  0  0  0
   -5.7080    2.0210   15.4650 N   0  0  0  0  0  0  0  0  0  0  0  0
   -4.4890    2.3910   14.9300 C   0  0  0  0  0  0  0  0  0  0  0  0
   -3.3980    1.9240   15.5460 N   0  0  0  0  0  0  0  0  0  0  0  0
   -3.5580    5.8530   14.5680 S   0  0  0  0  0  0  0  0  0  0  0  0
   -2.5920    6.2790   13.0900 C   0  0  0  0  0  0  0  0  0  0  0  0
   -1.5480    7.3130   13.3440 C   0  0  0  0  0  0  0  0  0  0  0  0
   -1.7520    8.2210   14.3690 N   0  0  0  0  0  0  0  0  0  0  0  0
   -0.7090    9.0390   14.4470 C   0  0  0  0  0  0  0  0  0  0  0  0
    0.5430    8.7600   13.3100 S   0  0  0  0  0  0  0  0  0  0  0  0
   -0.3820    7.4540   12.6750 C   0  0  0  0  0  0  0  0  0  0  0  0
   -1.6120   10.4390   13.8730 N   0  0  0  0  0  0  0  0  0  0  0  0
   -2.0900   11.3600   12.9920 C   0  0  0  0  0  0  0  0  0  0  0  0
   -1.8710   12.6270   13.2580 N   0  0  0  0  0  0  0  0  0  0  0  0
  2  1  1  0
  9  1  1  0
 11  2  1  0
 19  3  1  0
  5  4  2  0
  6  5  2  0
  7  5  1  0
  8  5  1  0
  9  8  2  0
 10  9  1  0
 12 11  1  0
 13 12  1  0
 14 13  2  0
 17 13  1  0
 15 14  1  0
 16 15  2  0
 18 15  1  0
 17 16  1  0
 19 18  2  3
 20 19  1  0
A    1
C1
A    2
C2
A    3
N2
A    4
O1
A    5
S2
A    6
O
A    7
N6
A    8
N5
A    9
C
A   10
N
A   11
S
A   12
C3
A   13
C4
A   14
N4
A   15
C6
A   16
S1
A   17
C5
A   18
N1
A   19
C7
A   20
N3
M  END
>  <Id>  (233) 
6G3Q_FO9_A_302

>  <ChainId>  (233) 
A

>  <AsymId>  (233) 
C

>  <SeqNum>  (233) 
302

>  <Name>  (233) 
famotidine

>  <SystematicName>  (233) 
3-[[2-[bis(azanyl)methylideneamino]-5~{H}-1,3-thiazol-4-yl]methylsulfanyl]-~{N}'-sulfamoyl-propanimidamide

>  <Synonyms>  (233) 


>  <Type>  (233) 
NON-POLYMER

>  <Formula>  (233) 
C8 H17 N7 O2 S3

>  <ObservedFormula>  (233) 
C8 S3 N7 O2

>  <MolecularWeight>  (233) 
339.461

>  <ModifiedDate>  (233) 
2018-11-23

>  <Parent>  (233) 


>  <OneLetterCode>  (233) 


>  <SubcomponentList>  (233) 


>  <AmbiguousFlag>  (233) 
N

>  <InsertionCode>  (233) 


>  <InstanceId>  (233) 
6G3Q_FO9_A_302

>  <ChemCompId>  (233) 
FO9

>  <PdbId>  (233) 
6G3Q

>  <ResidueNumber>  (233) 
302

>  <InChI>  (233) 
InChI=1S/C8H17N7O2S3/c9-6(15-20(12,16)17)1-2-18-3-5-4-19-8(13-5)14-7(10)11/h19H,1-4H2,(H2,9,15)(H4,10,11,14)(H2,12,16,17)

>  <InChIKey>  (233) 
YFGRAZUYIUBWJO-UHFFFAOYSA-N

>  <SMILES>  (233) 
C1C(=NC(=S1)N=C(N)N)CSCC/C(=N/S(=O)(=O)N)/N

>  <MissingHeavyAtoms>  (233) 
0

>  <Model>  (233) 
1

>  <AltIds>  (233) 


>  <pKI>  (233) 
7.24

>  <ChemblID>  (233) 
-

>  <standardized_canonical_smiles>  (233) 
NC(N)=NC1=[SH]CC(CSCC/C(N)=N/S(N)(=O)=O)=N1

$$$$
6H29_FK8_A_302
     RDKit          3D

 11 11  0  0  0  0  0  0  0  0999 V2000
   -5.6460    1.0500   16.7870 C   0  0  0  0  0  0  0  0  0  0  0  0
   -6.3480    4.0010   16.0240 C   0  0  0  0  0  0  0  0  0  0  0  0
   -5.0020    4.7200   14.1610 C   0  0  0  0  0  0  0  0  0  0  0  0
   -5.9280    6.3350   15.6680 C   0  0  0  0  0  0  0  0  0  0  0  0
   -5.5900    3.7120   14.9050 C   0  0  0  0  0  0  0  0  0  0  0  0
   -7.0350    2.9430   16.8240 C   0  0  0  0  0  0  0  0  0  0  0  0
   -5.1920    6.0180   14.5670 C   0  0  0  0  0  0  0  0  0  0  0  0
   -6.4960    5.3200   16.3820 C   0  0  0  0  0  0  0  0  0  0  0  0
   -5.3440   -0.0560   16.1250 N   0  0  0  0  0  0  0  0  0  0  0  0
   -5.0440    1.5020   17.7400 O   0  0  0  0  0  0  0  0  0  0  0  0
   -6.7330    1.6480   16.2760 O   0  0  0  0  0  0  0  0  0  0  0  0
  9  1  1  0
 10  1  2  0
 11  1  1  0
  5  2  2  0
  6  2  1  0
  8  2  1  0
  5  3  1  0
  7  3  2  0
  7  4  1  0
  8  4  2  0
 11  6  1  0
A    1
C1
A    2
C3
A    3
C5
A    4
C7
A    5
C4
A    6
C2
A    7
C6
A    8
C8
A    9
N1
A   10
O1
A   11
O2
M  END
>  <Id>  (234) 
6H29_FK8_A_302

>  <ChainId>  (234) 
A

>  <AsymId>  (234) 
C

>  <SeqNum>  (234) 
302

>  <Name>  (234) 
(phenylmethyl) carbamate

>  <SystematicName>  (234) 
(phenylmethyl) carbamate

>  <Synonyms>  (234) 


>  <Type>  (234) 
NON-POLYMER

>  <Formula>  (234) 
C8 H9 N O2

>  <ObservedFormula>  (234) 
C8 N O2

>  <MolecularWeight>  (234) 
151.163

>  <ModifiedDate>  (234) 
2018-08-31

>  <Parent>  (234) 


>  <OneLetterCode>  (234) 


>  <SubcomponentList>  (234) 


>  <AmbiguousFlag>  (234) 
N

>  <InsertionCode>  (234) 


>  <InstanceId>  (234) 
6H29_FK8_A_302

>  <ChemCompId>  (234) 
FK8

>  <PdbId>  (234) 
6H29

>  <ResidueNumber>  (234) 
302

>  <InChI>  (234) 
InChI=1S/C8H9NO2/c9-8(10)11-6-7-4-2-1-3-5-7/h1-5H,6H2,(H2,9,10)

>  <InChIKey>  (234) 
PUJDIJCNWFYVJX-UHFFFAOYSA-N

>  <SMILES>  (234) 
c1ccc(cc1)COC(=O)N

>  <MissingHeavyAtoms>  (234) 
0

>  <Model>  (234) 
1

>  <AltIds>  (234) 


>  <pKI>  (234) 
5.62

>  <ChemblID>  (234) 
-

>  <standardized_canonical_smiles>  (234) 
NC(=O)OCc1ccccc1

$$$$
1LG6_SCN_A_263
     RDKit          3D

  3  2  0  0  0  0  0  0  0  0999 V2000
   11.0470   -5.6370   24.8170 S   0  0  0  0  0  0  0  0  0  0  0  0
   10.6270   -6.0360   23.1250 C   0  0  0  0  0  0  0  0  0  0  0  0
   10.3910   -6.3270   22.0120 N   0  0  0  0  0  0  0  0  0  0  0  0
  2  1  1  0
  3  2  3  0
M  CHG  1   1  -1
A    1
S
A    2
C
A    3
N
M  END
>  <Id>  (235) 
1LG6_SCN_A_263

>  <ChainId>  (235) 
A

>  <AsymId>  (235) 
C

>  <SeqNum>  (235) 
263

>  <Name>  (235) 
THIOCYANATE ION

>  <SystematicName>  (235) 
thiocyanate

>  <Synonyms>  (235) 


>  <Type>  (235) 
NON-POLYMER

>  <Formula>  (235) 
C N S

>  <ObservedFormula>  (235) 
S C N

>  <MolecularWeight>  (235) 
58.082

>  <ModifiedDate>  (235) 
2011-06-04

>  <Parent>  (235) 


>  <OneLetterCode>  (235) 


>  <SubcomponentList>  (235) 


>  <AmbiguousFlag>  (235) 
N

>  <InsertionCode>  (235) 


>  <InstanceId>  (235) 
1LG6_SCN_A_263

>  <ChemCompId>  (235) 
SCN

>  <PdbId>  (235) 
1LG6

>  <ResidueNumber>  (235) 
263

>  <InChI>  (235) 
InChI=1S/CHNS/c2-1-3/h3H/p-1

>  <InChIKey>  (235) 
ZMZDMBWJUHKJPS-UHFFFAOYSA-M

>  <SMILES>  (235) 
C(#N)[S-]

>  <MissingHeavyAtoms>  (235) 
0

>  <Model>  (235) 
1

>  <AltIds>  (235) 


>  <pKI>  (235) 
2.8

>  <ChemblID>  (235) 
-

>  <standardized_canonical_smiles>  (235) 
N#C[S-]

$$$$
4YGK_SCN_A_302
     RDKit          3D

  3  2  0  0  0  0  0  0  0  0999 V2000
   15.0080    2.4940   17.8810 S   0  0  0  0  0  0  0  0  0  0  0  0
   14.3770    1.2410   17.1460 C   0  0  0  0  0  0  0  0  0  0  0  0
   14.0080    0.3830   16.5570 N   0  0  0  0  0  0  0  0  0  0  0  0
  2  1  1  0
  3  2  3  0
M  CHG  1   1  -1
A    1
S
A    2
C
A    3
N
M  END
>  <Id>  (236) 
4YGK_SCN_A_302

>  <ChainId>  (236) 
A

>  <AsymId>  (236) 
C

>  <SeqNum>  (236) 
302

>  <Name>  (236) 
THIOCYANATE ION

>  <SystematicName>  (236) 
thiocyanate

>  <Synonyms>  (236) 


>  <Type>  (236) 
NON-POLYMER

>  <Formula>  (236) 
C N S

>  <ObservedFormula>  (236) 
S C N

>  <MolecularWeight>  (236) 
58.082

>  <ModifiedDate>  (236) 
2011-06-04

>  <Parent>  (236) 


>  <OneLetterCode>  (236) 


>  <SubcomponentList>  (236) 


>  <AmbiguousFlag>  (236) 
N

>  <InsertionCode>  (236) 


>  <InstanceId>  (236) 
4YGK_SCN_A_302

>  <ChemCompId>  (236) 
SCN

>  <PdbId>  (236) 
4YGK

>  <ResidueNumber>  (236) 
302

>  <InChI>  (236) 
InChI=1S/CHNS/c2-1-3/h3H/p-1

>  <InChIKey>  (236) 
ZMZDMBWJUHKJPS-UHFFFAOYSA-M

>  <SMILES>  (236) 
C(#N)[S-]

>  <MissingHeavyAtoms>  (236) 
0

>  <Model>  (236) 
1

>  <AltIds>  (236) 


>  <pKI>  (236) 
2.8

>  <ChemblID>  (236) 
-

>  <standardized_canonical_smiles>  (236) 
N#C[S-]

$$$$
2CA2_SCN_A_263
     RDKit          3D

  3  2  0  0  0  0  0  0  0  0999 V2000
   -6.3320    2.2490   18.0720 S   0  0  0  0  0  0  0  0  0  0  0  0
   -6.5110    1.0380   17.1410 C   0  0  0  0  0  0  0  0  0  0  0  0
   -6.6530    0.0380   16.3720 N   0  0  0  0  0  0  0  0  0  0  0  0
  2  1  1  0
  3  2  3  0
M  CHG  1   1  -1
A    1
S
A    2
C
A    3
N
M  END
>  <Id>  (237) 
2CA2_SCN_A_263

>  <ChainId>  (237) 
A

>  <AsymId>  (237) 
C

>  <SeqNum>  (237) 
263

>  <Name>  (237) 
THIOCYANATE ION

>  <SystematicName>  (237) 
thiocyanate

>  <Synonyms>  (237) 


>  <Type>  (237) 
NON-POLYMER

>  <Formula>  (237) 
C N S

>  <ObservedFormula>  (237) 
S C N

>  <MolecularWeight>  (237) 
58.082

>  <ModifiedDate>  (237) 
2011-06-04

>  <Parent>  (237) 


>  <OneLetterCode>  (237) 


>  <SubcomponentList>  (237) 


>  <AmbiguousFlag>  (237) 
N

>  <InsertionCode>  (237) 


>  <InstanceId>  (237) 
2CA2_SCN_A_263

>  <ChemCompId>  (237) 
SCN

>  <PdbId>  (237) 
2CA2

>  <ResidueNumber>  (237) 
263

>  <InChI>  (237) 
InChI=1S/CHNS/c2-1-3/h3H/p-1

>  <InChIKey>  (237) 
ZMZDMBWJUHKJPS-UHFFFAOYSA-M

>  <SMILES>  (237) 
C(#N)[S-]

>  <MissingHeavyAtoms>  (237) 
0

>  <Model>  (237) 
1

>  <AltIds>  (237) 


>  <pKI>  (237) 
2.8

>  <ChemblID>  (237) 
-

>  <standardized_canonical_smiles>  (237) 
N#C[S-]

$$$$
5T74_TRS_A_304
     RDKit          3D

  8  7  0  0  0  0  0  0  0  0999 V2000
   16.6580    1.9960   11.1480 C   0  0  0  0  0  0  0  0  0  0  0  0
   16.2130    1.3860    9.8230 C   0  0  0  0  0  0  0  0  0  0  0  0
   17.3690    3.3260   10.9330 C   0  0  0  0  0  0  0  0  0  0  0  0
   17.4380    0.9350   11.9300 C   0  0  0  0  0  0  0  0  0  0  0  0
   15.4950    2.4170   11.9430 N   0  0  0  0  0  0  0  0  0  0  0  0
   15.1800    0.4380   10.0360 O   0  0  0  0  0  0  0  0  0  0  0  0
   16.3740    4.3060   10.5820 O   0  0  0  0  0  0  0  0  0  0  0  0
   18.4180    0.2880   11.1170 O   0  0  0  0  0  0  0  0  0  0  0  0
  2  1  1  0
  3  1  1  0
  4  1  1  0
  5  1  1  0
  6  2  1  0
  7  3  1  0
  8  4  1  0
M  CHG  1   5   1
A    1
C
A    2
C1
A    3
C2
A    4
C3
A    5
N
A    6
O1
A    7
O2
A    8
O3
M  END
>  <Id>  (238) 
5T74_TRS_A_304

>  <ChainId>  (238) 
A

>  <AsymId>  (238) 
E

>  <SeqNum>  (238) 
304

>  <Name>  (238) 
2-AMINO-2-HYDROXYMETHYL-PROPANE-1,3-DIOL

>  <SystematicName>  (238) 
[1,3-dihydroxy-2-(hydroxymethyl)propan-2-yl]azanium

>  <Synonyms>  (238) 
TRIS BUFFER

>  <Type>  (238) 
NON-POLYMER

>  <Formula>  (238) 
C4 H12 N O3

>  <ObservedFormula>  (238) 
C4 N O3

>  <MolecularWeight>  (238) 
122.143

>  <ModifiedDate>  (238) 
2011-06-04

>  <Parent>  (238) 


>  <OneLetterCode>  (238) 


>  <SubcomponentList>  (238) 


>  <AmbiguousFlag>  (238) 
N

>  <InsertionCode>  (238) 


>  <InstanceId>  (238) 
5T74_TRS_A_304

>  <ChemCompId>  (238) 
TRS

>  <PdbId>  (238) 
5T74

>  <ResidueNumber>  (238) 
304

>  <InChI>  (238) 
InChI=1S/C4H11NO3/c5-4(1-6,2-7)3-8/h6-8H,1-3,5H2/p+1

>  <InChIKey>  (238) 
LENZDBCJOHFCAS-UHFFFAOYSA-O

>  <SMILES>  (238) 
C(C(CO)(CO)[NH3+])O

>  <MissingHeavyAtoms>  (238) 
0

>  <Model>  (238) 
1

>  <AltIds>  (238) 


>  <pKI>  (238) 
4.92

>  <ChemblID>  (238) 
-

>  <standardized_canonical_smiles>  (238) 
[NH3+]C(CO)(CO)CO

$$$$
5T71_TRS_A_305
     RDKit          3D

  8  7  0  0  0  0  0  0  0  0999 V2000
   32.0960   -0.0140   14.2310 C   0  0  0  0  0  0  0  0  0  0  0  0
   33.0630    0.1160   15.4130 C   0  0  0  0  0  0  0  0  0  0  0  0
   31.1660    1.1850   14.0680 C   0  0  0  0  0  0  0  0  0  0  0  0
   31.2090   -1.2490   14.4180 C   0  0  0  0  0  0  0  0  0  0  0  0
   32.9680   -0.1220   13.0190 N   0  0  0  0  0  0  0  0  0  0  0  0
   32.4670    0.6570   16.5830 O   0  0  0  0  0  0  0  0  0  0  0  0
   31.7120    2.2200   13.2510 O   0  0  0  0  0  0  0  0  0  0  0  0
   31.0690   -2.1200   13.3010 O   0  0  0  0  0  0  0  0  0  0  0  0
  2  1  1  0
  3  1  1  0
  4  1  1  0
  5  1  1  0
  6  2  1  0
  7  3  1  0
  8  4  1  0
M  CHG  1   5   1
A    1
C
A    2
C1
A    3
C2
A    4
C3
A    5
N
A    6
O1
A    7
O2
A    8
O3
M  END
>  <Id>  (239) 
5T71_TRS_A_305

>  <ChainId>  (239) 
A

>  <AsymId>  (239) 
F

>  <SeqNum>  (239) 
305

>  <Name>  (239) 
2-AMINO-2-HYDROXYMETHYL-PROPANE-1,3-DIOL

>  <SystematicName>  (239) 
[1,3-dihydroxy-2-(hydroxymethyl)propan-2-yl]azanium

>  <Synonyms>  (239) 
TRIS BUFFER

>  <Type>  (239) 
NON-POLYMER

>  <Formula>  (239) 
C4 H12 N O3

>  <ObservedFormula>  (239) 
C4 N O3

>  <MolecularWeight>  (239) 
122.143

>  <ModifiedDate>  (239) 
2011-06-04

>  <Parent>  (239) 


>  <OneLetterCode>  (239) 


>  <SubcomponentList>  (239) 


>  <AmbiguousFlag>  (239) 
N

>  <InsertionCode>  (239) 


>  <InstanceId>  (239) 
5T71_TRS_A_305

>  <ChemCompId>  (239) 
TRS

>  <PdbId>  (239) 
5T71

>  <ResidueNumber>  (239) 
305

>  <InChI>  (239) 
InChI=1S/C4H11NO3/c5-4(1-6,2-7)3-8/h6-8H,1-3,5H2/p+1

>  <InChIKey>  (239) 
LENZDBCJOHFCAS-UHFFFAOYSA-O

>  <SMILES>  (239) 
C(C(CO)(CO)[NH3+])O

>  <MissingHeavyAtoms>  (239) 
0

>  <Model>  (239) 
1

>  <AltIds>  (239) 


>  <pKI>  (239) 
4.92

>  <ChemblID>  (239) 
-

>  <standardized_canonical_smiles>  (239) 
[NH3+]C(CO)(CO)CO

$$$$
1H4N_TRS_A_263
     RDKit          3D

  8  7  0  0  0  0  0  0  0  0999 V2000
   -5.7840    1.0300   15.8510 C   0  0  0  0  0  0  0  0  0  0  0  0
   -4.5160    1.9070   15.7840 C   0  0  0  0  0  0  0  0  0  0  0  0
   -6.8770    1.6260   14.9710 C   0  0  0  0  0  0  0  0  0  0  0  0
   -6.3320    0.9090   17.3100 C   0  0  0  0  0  0  0  0  0  0  0  0
   -5.4230   -0.2690   15.3070 N   0  0  0  0  0  0  0  0  0  0  0  0
   -3.9790    1.7210   14.4810 O   0  0  0  0  0  0  0  0  0  0  0  0
   -7.9520    0.7020   14.9540 O   0  0  0  0  0  0  0  0  0  0  0  0
   -5.4140    0.2480   18.1630 O   0  0  0  0  0  0  0  0  0  0  0  0
  2  1  1  0
  3  1  1  0
  4  1  1  0
  5  1  1  0
  6  2  1  0
  7  3  1  0
  8  4  1  0
M  CHG  1   5   1
A    1
C
A    2
C1
A    3
C2
A    4
C3
A    5
N
A    6
O1
A    7
O2
A    8
O3
M  END
>  <Id>  (240) 
1H4N_TRS_A_263

>  <ChainId>  (240) 
A

>  <AsymId>  (240) 
C

>  <SeqNum>  (240) 
263

>  <Name>  (240) 
2-AMINO-2-HYDROXYMETHYL-PROPANE-1,3-DIOL

>  <SystematicName>  (240) 
[1,3-dihydroxy-2-(hydroxymethyl)propan-2-yl]azanium

>  <Synonyms>  (240) 
TRIS BUFFER

>  <Type>  (240) 
NON-POLYMER

>  <Formula>  (240) 
C4 H12 N O3

>  <ObservedFormula>  (240) 
C4 N O3

>  <MolecularWeight>  (240) 
122.143

>  <ModifiedDate>  (240) 
2011-06-04

>  <Parent>  (240) 


>  <OneLetterCode>  (240) 


>  <SubcomponentList>  (240) 


>  <AmbiguousFlag>  (240) 
N

>  <InsertionCode>  (240) 


>  <InstanceId>  (240) 
1H4N_TRS_A_263

>  <ChemCompId>  (240) 
TRS

>  <PdbId>  (240) 
1H4N

>  <ResidueNumber>  (240) 
263

>  <InChI>  (240) 
InChI=1S/C4H11NO3/c5-4(1-6,2-7)3-8/h6-8H,1-3,5H2/p+1

>  <InChIKey>  (240) 
LENZDBCJOHFCAS-UHFFFAOYSA-O

>  <SMILES>  (240) 
C(C(CO)(CO)[NH3+])O

>  <MissingHeavyAtoms>  (240) 
0

>  <Model>  (240) 
1

>  <AltIds>  (240) 


>  <pKI>  (240) 
4.92

>  <ChemblID>  (240) 
-

>  <standardized_canonical_smiles>  (240) 
[NH3+]C(CO)(CO)CO

$$$$
6UGP_TRS_A_304
     RDKit          3D

  8  7  0  0  0  0  0  0  0  0999 V2000
   23.9240  -11.0890   15.1180 C   0  0  0  0  0  0  0  0  0  0  0  0
   25.4260  -10.9220   14.9340 C   0  0  0  0  0  0  0  0  0  0  0  0
   23.1190  -10.6300   13.9450 C   0  0  0  0  0  0  0  0  0  0  0  0
   23.4500  -10.2910   16.2980 C   0  0  0  0  0  0  0  0  0  0  0  0
   23.6020  -12.5300   15.3310 N   0  0  0  0  0  0  0  0  0  0  0  0
   25.7280   -9.9310   13.9590 O   0  0  0  0  0  0  0  0  0  0  0  0
   23.6540  -11.2710   12.8170 O   0  0  0  0  0  0  0  0  0  0  0  0
   22.3740  -11.0350   16.7910 O   0  0  0  0  0  0  0  0  0  0  0  0
  2  1  1  0
  3  1  1  0
  4  1  1  0
  5  1  1  0
  6  2  1  0
  7  3  1  0
  8  4  1  0
M  CHG  1   5   1
A    1
C
A    2
C1
A    3
C2
A    4
C3
A    5
N
A    6
O1
A    7
O2
A    8
O3
M  END
>  <Id>  (241) 
6UGP_TRS_A_304

>  <ChainId>  (241) 
A

>  <AsymId>  (241) 
E

>  <SeqNum>  (241) 
304

>  <Name>  (241) 
2-AMINO-2-HYDROXYMETHYL-PROPANE-1,3-DIOL

>  <SystematicName>  (241) 
[1,3-dihydroxy-2-(hydroxymethyl)propan-2-yl]azanium

>  <Synonyms>  (241) 
TRIS BUFFER

>  <Type>  (241) 
NON-POLYMER

>  <Formula>  (241) 
C4 H12 N O3

>  <ObservedFormula>  (241) 
C4 N O3

>  <MolecularWeight>  (241) 
122.143

>  <ModifiedDate>  (241) 
2011-06-04

>  <Parent>  (241) 


>  <OneLetterCode>  (241) 


>  <SubcomponentList>  (241) 


>  <AmbiguousFlag>  (241) 
N

>  <InsertionCode>  (241) 


>  <InstanceId>  (241) 
6UGP_TRS_A_304

>  <ChemCompId>  (241) 
TRS

>  <PdbId>  (241) 
6UGP

>  <ResidueNumber>  (241) 
304

>  <InChI>  (241) 
InChI=1S/C4H11NO3/c5-4(1-6,2-7)3-8/h6-8H,1-3,5H2/p+1

>  <InChIKey>  (241) 
LENZDBCJOHFCAS-UHFFFAOYSA-O

>  <SMILES>  (241) 
C(C(CO)(CO)[NH3+])O

>  <MissingHeavyAtoms>  (241) 
0

>  <Model>  (241) 
1

>  <AltIds>  (241) 


>  <pKI>  (241) 
4.92

>  <ChemblID>  (241) 
-

>  <standardized_canonical_smiles>  (241) 
[NH3+]C(CO)(CO)CO

$$$$
6PEA_TRS_A_301
     RDKit          3D

  8  7  0  0  0  0  0  0  0  0999 V2000
    2.7420  -11.5290   14.3800 C   0  0  0  0  0  0  0  0  0  0  0  0
    4.2560  -11.6840   14.5020 C   0  0  0  0  0  0  0  0  0  0  0  0
    2.0060  -12.7880   14.8300 C   0  0  0  0  0  0  0  0  0  0  0  0
    2.3300  -10.3480   15.2510 C   0  0  0  0  0  0  0  0  0  0  0  0
    2.4170  -11.3070   12.9880 N   0  0  0  0  0  0  0  0  0  0  0  0
    4.8540  -10.5470   13.9340 O   0  0  0  0  0  0  0  0  0  0  0  0
    2.5010  -13.1530   16.0840 O   0  0  0  0  0  0  0  0  0  0  0  0
    1.8650  -10.8100   16.5010 O   0  0  0  0  0  0  0  0  0  0  0  0
  2  1  1  0
  3  1  1  0
  4  1  1  0
  5  1  1  0
  6  2  1  0
  7  3  1  0
  8  4  1  0
M  CHG  1   5   1
A    1
C
A    2
C1
A    3
C2
A    4
C3
A    5
N
A    6
O1
A    7
O2
A    8
O3
M  END
>  <Id>  (242) 
6PEA_TRS_A_301

>  <ChainId>  (242) 
A

>  <AsymId>  (242) 
B

>  <SeqNum>  (242) 
301

>  <Name>  (242) 
2-AMINO-2-HYDROXYMETHYL-PROPANE-1,3-DIOL

>  <SystematicName>  (242) 
[1,3-dihydroxy-2-(hydroxymethyl)propan-2-yl]azanium

>  <Synonyms>  (242) 
TRIS BUFFER

>  <Type>  (242) 
NON-POLYMER

>  <Formula>  (242) 
C4 H12 N O3

>  <ObservedFormula>  (242) 
C4 N O3

>  <MolecularWeight>  (242) 
122.143

>  <ModifiedDate>  (242) 
2011-06-04

>  <Parent>  (242) 


>  <OneLetterCode>  (242) 


>  <SubcomponentList>  (242) 


>  <AmbiguousFlag>  (242) 
N

>  <InsertionCode>  (242) 


>  <InstanceId>  (242) 
6PEA_TRS_A_301

>  <ChemCompId>  (242) 
TRS

>  <PdbId>  (242) 
6PEA

>  <ResidueNumber>  (242) 
301

>  <InChI>  (242) 
InChI=1S/C4H11NO3/c5-4(1-6,2-7)3-8/h6-8H,1-3,5H2/p+1

>  <InChIKey>  (242) 
LENZDBCJOHFCAS-UHFFFAOYSA-O

>  <SMILES>  (242) 
C(C(CO)(CO)[NH3+])O

>  <MissingHeavyAtoms>  (242) 
0

>  <Model>  (242) 
1

>  <AltIds>  (242) 


>  <pKI>  (242) 
4.92

>  <ChemblID>  (242) 
-

>  <standardized_canonical_smiles>  (242) 
[NH3+]C(CO)(CO)CO

$$$$
6PDV_TRS_A_303
     RDKit          3D

  8  7  0  0  0  0  0  0  0  0999 V2000
  -18.3400  -11.7220   14.4810 C   0  0  0  0  0  0  0  0  0  0  0  0
  -16.8400  -11.3000   14.7250 C   0  0  0  0  0  0  0  0  0  0  0  0
  -18.7390  -10.6120   15.3680 C   0  0  0  0  0  0  0  0  0  0  0  0
  -18.6070  -13.1530   15.0710 C   0  0  0  0  0  0  0  0  0  0  0  0
  -18.4610  -11.6440   13.0780 N   0  0  0  0  0  0  0  0  0  0  0  0
  -15.9460  -10.8780   13.6770 O   0  0  0  0  0  0  0  0  0  0  0  0
  -19.0540  -11.0790   16.6290 O   0  0  0  0  0  0  0  0  0  0  0  0
  -19.2600  -14.0960   14.2670 O   0  0  0  0  0  0  0  0  0  0  0  0
  2  1  1  0
  3  1  1  0
  4  1  1  0
  5  1  1  0
  6  2  1  0
  7  3  1  0
  8  4  1  0
M  CHG  1   5   1
A    1
C
A    2
C1
A    3
C2
A    4
C3
A    5
N
A    6
O1
A    7
O2
A    8
O3
M  END
>  <Id>  (243) 
6PDV_TRS_A_303

>  <ChainId>  (243) 
A

>  <AsymId>  (243) 
D

>  <SeqNum>  (243) 
303

>  <Name>  (243) 
2-AMINO-2-HYDROXYMETHYL-PROPANE-1,3-DIOL

>  <SystematicName>  (243) 
[1,3-dihydroxy-2-(hydroxymethyl)propan-2-yl]azanium

>  <Synonyms>  (243) 
TRIS BUFFER

>  <Type>  (243) 
NON-POLYMER

>  <Formula>  (243) 
C4 H12 N O3

>  <ObservedFormula>  (243) 
C4 N O3

>  <MolecularWeight>  (243) 
122.143

>  <ModifiedDate>  (243) 
2011-06-04

>  <Parent>  (243) 


>  <OneLetterCode>  (243) 


>  <SubcomponentList>  (243) 


>  <AmbiguousFlag>  (243) 
N

>  <InsertionCode>  (243) 


>  <InstanceId>  (243) 
6PDV_TRS_A_303

>  <ChemCompId>  (243) 
TRS

>  <PdbId>  (243) 
6PDV

>  <ResidueNumber>  (243) 
303

>  <InChI>  (243) 
InChI=1S/C4H11NO3/c5-4(1-6,2-7)3-8/h6-8H,1-3,5H2/p+1

>  <InChIKey>  (243) 
LENZDBCJOHFCAS-UHFFFAOYSA-O

>  <SMILES>  (243) 
C(C(CO)(CO)[NH3+])O

>  <MissingHeavyAtoms>  (243) 
0

>  <Model>  (243) 
1

>  <AltIds>  (243) 


>  <pKI>  (243) 
4.92

>  <ChemblID>  (243) 
-

>  <standardized_canonical_smiles>  (243) 
[NH3+]C(CO)(CO)CO

$$$$
5T72_TRS_A_304
     RDKit          3D

  8  7  0  0  0  0  0  0  0  0999 V2000
   16.4970    1.8160   11.2220 C   0  0  0  0  0  0  0  0  0  0  0  0
   16.2240    1.3990    9.7980 C   0  0  0  0  0  0  0  0  0  0  0  0
   17.2240    3.1430   11.2790 C   0  0  0  0  0  0  0  0  0  0  0  0
   17.1170    0.6390   11.9760 C   0  0  0  0  0  0  0  0  0  0  0  0
   15.2060    2.1430   11.7810 N   0  0  0  0  0  0  0  0  0  0  0  0
   15.0760    0.5680    9.7270 O   0  0  0  0  0  0  0  0  0  0  0  0
   16.2600    4.1670   10.9650 O   0  0  0  0  0  0  0  0  0  0  0  0
   18.2990    0.1590   11.3350 O   0  0  0  0  0  0  0  0  0  0  0  0
  2  1  1  0
  3  1  1  0
  4  1  1  0
  5  1  1  0
  6  2  1  0
  7  3  1  0
  8  4  1  0
M  CHG  1   5   1
A    1
C
A    2
C1
A    3
C2
A    4
C3
A    5
N
A    6
O1
A    7
O2
A    8
O3
M  END
>  <Id>  (244) 
5T72_TRS_A_304

>  <ChainId>  (244) 
A

>  <AsymId>  (244) 
E

>  <SeqNum>  (244) 
304

>  <Name>  (244) 
2-AMINO-2-HYDROXYMETHYL-PROPANE-1,3-DIOL

>  <SystematicName>  (244) 
[1,3-dihydroxy-2-(hydroxymethyl)propan-2-yl]azanium

>  <Synonyms>  (244) 
TRIS BUFFER

>  <Type>  (244) 
NON-POLYMER

>  <Formula>  (244) 
C4 H12 N O3

>  <ObservedFormula>  (244) 
C4 N O3

>  <MolecularWeight>  (244) 
122.143

>  <ModifiedDate>  (244) 
2011-06-04

>  <Parent>  (244) 


>  <OneLetterCode>  (244) 


>  <SubcomponentList>  (244) 


>  <AmbiguousFlag>  (244) 
N

>  <InsertionCode>  (244) 


>  <InstanceId>  (244) 
5T72_TRS_A_304

>  <ChemCompId>  (244) 
TRS

>  <PdbId>  (244) 
5T72

>  <ResidueNumber>  (244) 
304

>  <InChI>  (244) 
InChI=1S/C4H11NO3/c5-4(1-6,2-7)3-8/h6-8H,1-3,5H2/p+1

>  <InChIKey>  (244) 
LENZDBCJOHFCAS-UHFFFAOYSA-O

>  <SMILES>  (244) 
C(C(CO)(CO)[NH3+])O

>  <MissingHeavyAtoms>  (244) 
0

>  <Model>  (244) 
1

>  <AltIds>  (244) 


>  <pKI>  (244) 
4.92

>  <ChemblID>  (244) 
-

>  <standardized_canonical_smiles>  (244) 
[NH3+]C(CO)(CO)CO

$$$$
1UGF_AZI_A_600
     RDKit          3D

  3  2  0  0  0  0  0  0  0  0999 V2000
   -5.2360   -0.7480   16.0470 N   0  0  0  0  0  0  0  0  0  0  0  0
   -5.4340    0.1820   16.7740 N   0  0  0  0  0  0  0  0  0  0  0  0
   -5.6350    1.1210   17.5040 N   0  0  0  0  0  0  0  0  0  0  0  0
  2  1  2  0
  3  2  2  0
M  CHG  3   1  -1   2   1   3  -1
A    1
N1
A    2
N2
A    3
N3
M  END
>  <Id>  (245) 
1UGF_AZI_A_600

>  <ChainId>  (245) 
A

>  <AsymId>  (245) 
D

>  <SeqNum>  (245) 
600

>  <Name>  (245) 
AZIDE ION

>  <SystematicName>  (245) 
azide

>  <Synonyms>  (245) 


>  <Type>  (245) 
NON-POLYMER

>  <Formula>  (245) 
N3

>  <ObservedFormula>  (245) 
N3

>  <MolecularWeight>  (245) 
42.02

>  <ModifiedDate>  (245) 
2011-06-04

>  <Parent>  (245) 


>  <OneLetterCode>  (245) 


>  <SubcomponentList>  (245) 


>  <AmbiguousFlag>  (245) 
N

>  <InsertionCode>  (245) 


>  <InstanceId>  (245) 
1UGF_AZI_A_600

>  <ChemCompId>  (245) 
AZI

>  <PdbId>  (245) 
1UGF

>  <ResidueNumber>  (245) 
600

>  <InChI>  (245) 
InChI=1S/N3/c1-3-2/q-1

>  <InChIKey>  (245) 
IVRMZWNICZWHMI-UHFFFAOYSA-N

>  <SMILES>  (245) 
[N-]=[N+]=[N-]

>  <MissingHeavyAtoms>  (245) 
0

>  <Model>  (245) 
1

>  <AltIds>  (245) 


>  <pKI>  (245) 
2.82

>  <ChemblID>  (245) 
-

>  <standardized_canonical_smiles>  (245) 
[N-]=[N+]=[N-]

$$$$
1RAY_AZI_A_500
     RDKit          3D

  3  2  0  0  0  0  0  0  0  0999 V2000
   -5.9600    0.8520   18.0300 N   0  0  0  0  0  0  0  0  0  0  0  0
   -5.6960    0.3500   16.9840 N   0  0  0  0  0  0  0  0  0  0  0  0
   -5.4320   -0.1520   15.9380 N   0  0  0  0  0  0  0  0  0  0  0  0
  2  1  2  0
  3  2  2  0
M  CHG  3   1  -1   2   1   3  -1
A    1
N1
A    2
N2
A    3
N3
M  END
>  <Id>  (246) 
1RAY_AZI_A_500

>  <ChainId>  (246) 
A

>  <AsymId>  (246) 
C

>  <SeqNum>  (246) 
500

>  <Name>  (246) 
AZIDE ION

>  <SystematicName>  (246) 
azide

>  <Synonyms>  (246) 


>  <Type>  (246) 
NON-POLYMER

>  <Formula>  (246) 
N3

>  <ObservedFormula>  (246) 
N3

>  <MolecularWeight>  (246) 
42.02

>  <ModifiedDate>  (246) 
2011-06-04

>  <Parent>  (246) 


>  <OneLetterCode>  (246) 


>  <SubcomponentList>  (246) 


>  <AmbiguousFlag>  (246) 
N

>  <InsertionCode>  (246) 


>  <InstanceId>  (246) 
1RAY_AZI_A_500

>  <ChemCompId>  (246) 
AZI

>  <PdbId>  (246) 
1RAY

>  <ResidueNumber>  (246) 
500

>  <InChI>  (246) 
InChI=1S/N3/c1-3-2/q-1

>  <InChIKey>  (246) 
IVRMZWNICZWHMI-UHFFFAOYSA-N

>  <SMILES>  (246) 
[N-]=[N+]=[N-]

>  <MissingHeavyAtoms>  (246) 
0

>  <Model>  (246) 
1

>  <AltIds>  (246) 


>  <pKI>  (246) 
2.82

>  <ChemblID>  (246) 
-

>  <standardized_canonical_smiles>  (246) 
[N-]=[N+]=[N-]

$$$$
1UGB_AZI_A_500
     RDKit          3D

  3  2  0  0  0  0  0  0  0  0999 V2000
   -6.3720    0.7830   17.6080 N   0  0  0  0  0  0  0  0  0  0  0  0
   -5.7520    0.0480   16.8830 N   0  0  0  0  0  0  0  0  0  0  0  0
   -5.1300   -0.6770   16.1660 N   0  0  0  0  0  0  0  0  0  0  0  0
  2  1  2  0
  3  2  2  0
M  CHG  3   1  -1   2   1   3  -1
A    1
N1
A    2
N2
A    3
N3
M  END
>  <Id>  (247) 
1UGB_AZI_A_500

>  <ChainId>  (247) 
A

>  <AsymId>  (247) 
C

>  <SeqNum>  (247) 
500

>  <Name>  (247) 
AZIDE ION

>  <SystematicName>  (247) 
azide

>  <Synonyms>  (247) 


>  <Type>  (247) 
NON-POLYMER

>  <Formula>  (247) 
N3

>  <ObservedFormula>  (247) 
N3

>  <MolecularWeight>  (247) 
42.02

>  <ModifiedDate>  (247) 
2011-06-04

>  <Parent>  (247) 


>  <OneLetterCode>  (247) 


>  <SubcomponentList>  (247) 


>  <AmbiguousFlag>  (247) 
N

>  <InsertionCode>  (247) 


>  <InstanceId>  (247) 
1UGB_AZI_A_500

>  <ChemCompId>  (247) 
AZI

>  <PdbId>  (247) 
1UGB

>  <ResidueNumber>  (247) 
500

>  <InChI>  (247) 
InChI=1S/N3/c1-3-2/q-1

>  <InChIKey>  (247) 
IVRMZWNICZWHMI-UHFFFAOYSA-N

>  <SMILES>  (247) 
[N-]=[N+]=[N-]

>  <MissingHeavyAtoms>  (247) 
0

>  <Model>  (247) 
1

>  <AltIds>  (247) 


>  <pKI>  (247) 
2.82

>  <ChemblID>  (247) 
-

>  <standardized_canonical_smiles>  (247) 
[N-]=[N+]=[N-]

$$$$
1CVA_AZI_A_357
     RDKit          3D

  3  2  0  0  0  0  0  0  0  0999 V2000
   -5.3050    0.3750   15.6120 N   0  0  0  0  0  0  0  0  0  0  0  0
   -5.5140    0.4590   16.7420 N   0  0  0  0  0  0  0  0  0  0  0  0
   -5.7170    0.5840   18.0140 N   0  0  0  0  0  0  0  0  0  0  0  0
  2  1  2  0
  3  2  2  0
M  CHG  3   1  -1   2   1   3  -1
A    1
N1
A    2
N2
A    3
N3
M  END
>  <Id>  (248) 
1CVA_AZI_A_357

>  <ChainId>  (248) 
A

>  <AsymId>  (248) 
C

>  <SeqNum>  (248) 
357

>  <Name>  (248) 
AZIDE ION

>  <SystematicName>  (248) 
azide

>  <Synonyms>  (248) 


>  <Type>  (248) 
NON-POLYMER

>  <Formula>  (248) 
N3

>  <ObservedFormula>  (248) 
N3

>  <MolecularWeight>  (248) 
42.02

>  <ModifiedDate>  (248) 
2011-06-04

>  <Parent>  (248) 


>  <OneLetterCode>  (248) 


>  <SubcomponentList>  (248) 


>  <AmbiguousFlag>  (248) 
N

>  <InsertionCode>  (248) 


>  <InstanceId>  (248) 
1CVA_AZI_A_357

>  <ChemCompId>  (248) 
AZI

>  <PdbId>  (248) 
1CVA

>  <ResidueNumber>  (248) 
357

>  <InChI>  (248) 
InChI=1S/N3/c1-3-2/q-1

>  <InChIKey>  (248) 
IVRMZWNICZWHMI-UHFFFAOYSA-N

>  <SMILES>  (248) 
[N-]=[N+]=[N-]

>  <MissingHeavyAtoms>  (248) 
0

>  <Model>  (248) 
1

>  <AltIds>  (248) 


>  <pKI>  (248) 
2.82

>  <ChemblID>  (248) 
-

>  <standardized_canonical_smiles>  (248) 
[N-]=[N+]=[N-]

$$$$
1AVN_AZI_A_265
     RDKit          3D

  3  2  0  0  0  0  0  0  0  0999 V2000
   -5.9850    0.8560   18.0290 N   0  0  0  0  0  0  0  0  0  0  0  0
   -5.6250    0.2940   17.0230 N   0  0  0  0  0  0  0  0  0  0  0  0
   -5.1930   -0.2980   16.0630 N   0  0  0  0  0  0  0  0  0  0  0  0
  2  1  2  0
  3  2  2  0
M  CHG  3   1  -1   2   1   3  -1
A    1
N1
A    2
N2
A    3
N3
M  END
>  <Id>  (249) 
1AVN_AZI_A_265

>  <ChainId>  (249) 
A

>  <AsymId>  (249) 
D

>  <SeqNum>  (249) 
265

>  <Name>  (249) 
AZIDE ION

>  <SystematicName>  (249) 
azide

>  <Synonyms>  (249) 


>  <Type>  (249) 
NON-POLYMER

>  <Formula>  (249) 
N3

>  <ObservedFormula>  (249) 
N3

>  <MolecularWeight>  (249) 
42.02

>  <ModifiedDate>  (249) 
2011-06-04

>  <Parent>  (249) 


>  <OneLetterCode>  (249) 


>  <SubcomponentList>  (249) 


>  <AmbiguousFlag>  (249) 
N

>  <InsertionCode>  (249) 


>  <InstanceId>  (249) 
1AVN_AZI_A_265

>  <ChemCompId>  (249) 
AZI

>  <PdbId>  (249) 
1AVN

>  <ResidueNumber>  (249) 
265

>  <InChI>  (249) 
InChI=1S/N3/c1-3-2/q-1

>  <InChIKey>  (249) 
IVRMZWNICZWHMI-UHFFFAOYSA-N

>  <SMILES>  (249) 
[N-]=[N+]=[N-]

>  <MissingHeavyAtoms>  (249) 
0

>  <Model>  (249) 
1

>  <AltIds>  (249) 


>  <pKI>  (249) 
2.82

>  <ChemblID>  (249) 
-

>  <standardized_canonical_smiles>  (249) 
[N-]=[N+]=[N-]

$$$$
1I91_INQ_A_555
     RDKit          3D

 29 32  0  0  0  0  0  0  0  0999 V2000
   -6.1530    0.2870   16.8760 S   0  0  0  0  0  0  0  0  0  0  0  0
   -7.5280    0.3360   17.0620 O   0  0  0  0  0  0  0  0  0  0  0  0
   -5.7960   -0.9580   16.1640 N   0  0  0  0  0  0  0  0  0  0  0  0
   -5.7080    1.6050   16.0510 C   0  0  0  0  0  0  0  0  0  0  0  0
   -4.4210    1.7460   15.3990 C   0  0  0  0  0  0  0  0  0  0  0  0
   -4.3170    2.9990   14.7280 C   0  0  0  0  0  0  0  0  0  0  0  0
   -5.5490    3.7790   14.9020 C   0  0  0  0  0  0  0  0  0  0  0  0
   -6.4750    2.9090   15.7660 S   0  0  0  0  0  0  0  0  0  0  0  0
   -3.2340    3.5670   13.9310 C   0  0  0  0  0  0  0  0  0  0  0  0
   -3.2460    4.9490   13.1950 C   0  0  0  0  0  0  0  0  0  0  0  0
   -4.5660    5.7190   13.3990 N   0  0  0  0  0  0  0  0  0  0  0  0
   -5.6820    5.1790   14.2850 S   0  0  0  0  0  0  0  0  0  0  0  0
   -5.7200    6.1470   15.3100 O   0  0  0  0  0  0  0  0  0  0  0  0
   -6.9280    5.2890   13.6260 O   0  0  0  0  0  0  0  0  0  0  0  0
   -2.1680    5.5830   12.3100 C   0  0  0  0  0  0  0  0  0  0  0  0
   -1.3740    8.1220   12.3990 C   0  0  0  0  0  0  0  0  0  0  0  0
   -1.5760    9.5000   13.1220 C   0  0  0  0  0  0  0  0  0  0  0  0
   -1.3080    9.3870   14.6680 O   0  0  0  0  0  0  0  0  0  0  0  0
   -2.0660    8.2320   15.3390 C   0  0  0  0  0  0  0  0  0  0  0  0
   -1.9740    6.9030   14.5960 C   0  0  0  0  0  0  0  0  0  0  0  0
   -2.3010    7.0400   13.0300 N   0  0  0  0  0  0  0  0  0  0  0  0
   -5.7150    7.1820   11.6870 C   0  0  0  0  0  0  0  0  0  0  0  0
   -5.1200    5.9270   12.0430 C   0  0  0  0  0  0  0  0  0  0  0  0
   -5.0930    4.8510   11.0330 C   0  0  0  0  0  0  0  0  0  0  0  0
   -5.6500    5.0030    9.6610 C   0  0  0  0  0  0  0  0  0  0  0  0
   -6.2290    6.3580    9.4470 C   0  0  0  0  0  0  0  0  0  0  0  0
   -6.2930    7.4860   10.4080 C   0  0  0  0  0  0  0  0  0  0  0  0
   -6.8860    8.8780   10.1060 O   0  0  0  0  0  0  0  0  0  0  0  0
   -5.5090    0.2980   18.1190 O   0  0  0  0  0  0  0  0  0  0  0  0
  2  1  2  0
  3  1  1  0
  4  1  1  0
 29  1  2  0
  5  4  2  0
  8  4  1  0
  6  5  1  0
  7  6  2  0
  9  6  1  0
  8  7  1  0
 12  7  1  0
 10  9  2  0
 11 10  1  0
 15 10  1  0
 12 11  1  0
 23 11  1  0
 13 12  2  0
 14 12  2  0
 21 15  1  0
 17 16  1  0
 21 16  1  0
 18 17  1  0
 19 18  1  0
 20 19  1  0
 21 20  1  0
 23 22  2  0
 27 22  1  0
 24 23  1  0
 25 24  2  0
 26 25  1  0
 27 26  2  0
 28 27  1  0
A    1
S01
A    2
O02
A    3
N03
A    4
C04
A    5
C05
A    6
C06
A    7
C07
A    8
S08
A    9
C09
A   10
C10
A   11
N11
A   12
S12
A   13
O13
A   14
O14
A   15
C15
A   16
C16
A   17
C17
A   18
O18
A   19
C19
A   20
C20
A   21
N21
A   22
C22
A   23
C23
A   24
C24
A   25
C25
A   26
C26
A   27
C27
A   28
O28
A   29
O29
M  END
>  <Id>  (250) 
1I91_INQ_A_555

>  <ChainId>  (250) 
A

>  <AsymId>  (250) 
D

>  <SeqNum>  (250) 
555

>  <Name>  (250) 
6-[N-(3-HYDROXY-PHENYL)-3-(MORPHOLIN-4-YLMETHYL)-2H-THIENO[3,2-E]-1,2-THIAZINE-1,1,-DIOXIDE]-SULFONAMIDE

>  <SystematicName>  (250) 
2-(3-hydroxyphenyl)-3-(morpholin-4-ylmethyl)-1,1-dioxo-thieno[4,5-e][1,2]thiazine-6-sulfonamide

>  <Synonyms>  (250) 
AL-6619, [2H-THIENO[3,2-E]-1,2-THIAZINE-6-SULFONAMIDE, 2-(3-HYDROXYPHENYL)-3-(4-MORPHOLINYL)-, 1,1-DIOXIDE]

>  <Type>  (250) 
NON-POLYMER

>  <Formula>  (250) 
C17 H19 N3 O6 S3

>  <ObservedFormula>  (250) 
S3 C17 N3 O6

>  <MolecularWeight>  (250) 
457.544

>  <ModifiedDate>  (250) 
2011-06-04

>  <Parent>  (250) 


>  <OneLetterCode>  (250) 


>  <SubcomponentList>  (250) 


>  <AmbiguousFlag>  (250) 
N

>  <InsertionCode>  (250) 


>  <InstanceId>  (250) 
1I91_INQ_A_555

>  <ChemCompId>  (250) 
INQ

>  <PdbId>  (250) 
1I91

>  <ResidueNumber>  (250) 
555

>  <InChI>  (250) 
InChI=1S/C17H19N3O6S3/c18-28(22,23)16-9-12-8-14(11-19-4-6-26-7-5-19)20(29(24,25)17(12)27-16)13-2-1-3-15(21)10-13/h1-3,8-10,21H,4-7,11H2,(H2,18,22,23)

>  <InChIKey>  (250) 
PZLYYZPXSSNGJS-UHFFFAOYSA-N

>  <SMILES>  (250) 
c1cc(cc(c1)O)N2C(=Cc3cc(sc3S2(=O)=O)S(=O)(=O)N)CN4CCOCC4

>  <MissingHeavyAtoms>  (250) 
0

>  <Model>  (250) 
1

>  <AltIds>  (250) 


>  <pKI>  (250) 
9.82

>  <ChemblID>  (250) 
-

>  <standardized_canonical_smiles>  (250) 
NS(=O)(=O)c1cc2c(s1)S(=O)(=O)N(c1cccc(O)c1)C(CN1CCOCC1)=C2

$$$$
4XE1_IL5_A_305
     RDKit          3D

 16 17  0  0  0  0  0  0  0  0999 V2000
   -5.7230    3.3010   15.4070 C   0  0  0  0  0  0  0  0  0  0  0  0
   -5.0650    4.3350   14.7350 C   0  0  0  0  0  0  0  0  0  0  0  0
   -5.5830    5.9260   14.1930 S   0  0  0  0  0  0  0  0  0  0  0  0
   -5.9500    6.7130   15.3430 O   0  0  0  0  0  0  0  0  0  0  0  0
   -6.6020    5.8440   13.1770 O   0  0  0  0  0  0  0  0  0  0  0  0
   -4.1720    6.3950   13.5610 N   0  0  0  0  0  0  0  0  0  0  0  0
   -3.2230    5.4400   13.6900 C   0  0  0  0  0  0  0  0  0  0  0  0
   -2.0580    5.5710   13.2890 O   0  0  0  0  0  0  0  0  0  0  0  0
   -3.7190    4.2030   14.3770 C   0  0  0  0  0  0  0  0  0  0  0  0
   -3.0230    3.0270   14.6730 C   0  0  0  0  0  0  0  0  0  0  0  0
   -3.6730    1.9930   15.3540 C   0  0  0  0  0  0  0  0  0  0  0  0
   -5.0170    2.1360   15.7190 C   0  0  0  0  0  0  0  0  0  0  0  0
   -5.8250    0.8330   16.5750 S   0  0  0  0  0  0  0  0  0  0  0  0
   -5.3090    0.9080   17.9070 O   0  0  0  0  0  0  0  0  0  0  0  0
   -7.2320    0.9890   16.3690 O   0  0  0  0  0  0  0  0  0  0  0  0
   -5.3410   -0.5260   15.9350 N   0  0  0  0  0  0  0  0  0  0  0  0
  2  1  2  0
 12  1  1  0
  3  2  1  0
  9  2  1  0
  4  3  2  0
  5  3  2  0
  6  3  1  0
  7  6  1  0
  8  7  2  0
  9  7  1  0
 10  9  2  0
 11 10  1  0
 12 11  2  0
 13 12  1  0
 14 13  2  0
 15 13  2  0
 16 13  1  0
A    1
C2
A    2
C3
A    3
S2
A    4
O3
A    5
O4
A    6
N2
A    7
C7
A    8
O5
A    9
C4
A   10
C5
A   11
C6
A   12
C1
A   13
S1
A   14
O1
A   15
O2
A   16
N1
M  END
>  <Id>  (251) 
4XE1_IL5_A_305

>  <ChainId>  (251) 
A

>  <AsymId>  (251) 
F

>  <SeqNum>  (251) 
305

>  <Name>  (251) 
3-oxo-2,3-dihydro-1,2-benzothiazole-6-sulfonamide 1,1-dioxide

>  <SystematicName>  (251) 
1,1,3-tris(oxidanylidene)-1,2-benzothiazole-6-sulfonamide

>  <Synonyms>  (251) 


>  <Type>  (251) 
NON-POLYMER

>  <Formula>  (251) 
C7 H6 N2 O5 S2

>  <ObservedFormula>  (251) 
C7 S2 N2 O5

>  <MolecularWeight>  (251) 
262.263

>  <ModifiedDate>  (251) 
2015-03-13

>  <Parent>  (251) 


>  <OneLetterCode>  (251) 


>  <SubcomponentList>  (251) 


>  <AmbiguousFlag>  (251) 
N

>  <InsertionCode>  (251) 


>  <InstanceId>  (251) 
4XE1_IL5_A_305

>  <ChemCompId>  (251) 
IL5

>  <PdbId>  (251) 
4XE1

>  <ResidueNumber>  (251) 
305

>  <InChI>  (251) 
InChI=1S/C7H6N2O5S2/c8-15(11,12)4-1-2-5-6(3-4)16(13,14)9-7(5)10/h1-3H,(H,9,10)(H2,8,11,12)

>  <InChIKey>  (251) 
CRSHTYPFKXPVRE-UHFFFAOYSA-N

>  <SMILES>  (251) 
c1cc2c(cc1S(=O)(=O)N)S(=O)(=O)NC2=O

>  <MissingHeavyAtoms>  (251) 
0

>  <Model>  (251) 
1

>  <AltIds>  (251) 


>  <pKI>  (251) 
7.11

>  <ChemblID>  (251) 
-

>  <standardized_canonical_smiles>  (251) 
NS(=O)(=O)c1ccc2c(c1)S(=O)(=O)NC2=O

$$$$
5TFX_7B1_A_303
     RDKit          3D

 22 24  0  0  0  0  0  0  0  0999 V2000
   -2.2580   11.8120   80.2460 C   0  0  0  0  0  0  0  0  0  0  0  0
   -3.5320   11.3990   80.5390 C   0  0  0  0  0  0  0  0  0  0  0  0
   -1.1820   10.9550   80.3710 C   0  0  0  0  0  0  0  0  0  0  0  0
   -3.7470   10.1060   80.9720 C   0  0  0  0  0  0  0  0  0  0  0  0
   -1.3920    9.6650   80.7980 C   0  0  0  0  0  0  0  0  0  0  0  0
   -0.2190    3.5870   84.7090 C   0  0  0  0  0  0  0  0  0  0  0  0
   -0.8430    2.6200   85.4370 C   0  0  0  0  0  0  0  0  0  0  0  0
   -3.0260    3.5860   85.0560 C   0  0  0  0  0  0  0  0  0  0  0  0
   -2.6870    9.2620   81.0930 C   0  0  0  0  0  0  0  0  0  0  0  0
   -2.3750    4.5360   84.3010 C   0  0  0  0  0  0  0  0  0  0  0  0
   -1.0080    4.5350   84.1460 C   0  0  0  0  0  0  0  0  0  0  0  0
   -2.2150    2.6120   85.6010 C   0  0  0  0  0  0  0  0  0  0  0  0
   -2.9790    7.9050   81.5750 C   0  0  0  0  0  0  0  0  0  0  0  0
   -1.9130    6.2750   82.9390 C   0  0  0  0  0  0  0  0  0  0  0  0
   -2.3760   -0.1330   86.0280 N   0  0  0  0  0  0  0  0  0  0  0  0
   -2.9690    5.6200   83.6540 N   0  0  0  0  0  0  0  0  0  0  0  0
   -1.9160    7.4510   82.2210 N   0  0  0  0  0  0  0  0  0  0  0  0
   -0.6080    5.5510   83.4010 O   0  0  0  0  0  0  0  0  0  0  0  0
   -3.9990    7.2740   81.4670 O   0  0  0  0  0  0  0  0  0  0  0  0
   -2.3230    1.4910   87.9470 O   0  0  0  0  0  0  0  0  0  0  0  0
   -4.3270    1.4180   86.4850 O   0  0  0  0  0  0  0  0  0  0  0  0
   -2.8800    1.3070   86.6170 S   0  0  0  0  0  0  0  0  0  0  0  0
  2  1  2  0
  3  1  1  0
  4  2  1  0
  5  3  2  0
  9  4  2  0
  9  5  1  0
  7  6  2  0
 11  6  1  0
 12  7  1  0
 10  8  1  0
 12  8  2  0
 13  9  1  0
 11 10  2  0
 16 10  1  0
 18 11  1  0
 22 12  1  0
 17 13  1  0
 19 13  2  0
 16 14  2  0
 17 14  1  0
 18 14  1  0
 22 15  1  0
 22 20  2  0
 22 21  2  0
A    1
C20
A    2
C19
A    3
C21
A    4
C18
A    5
C22
A    6
C9
A    7
C10
A    8
C16
A    9
C17
A   10
C6
A   11
C7
A   12
C11
A   13
C2
A   14
C4
A   15
N14
A   16
N5
A   17
N3
A   18
O8
A   19
O1
A   20
O13
A   21
O15
A   22
S12
M  END
>  <Id>  (252) 
5TFX_7B1_A_303

>  <ChainId>  (252) 
A

>  <AsymId>  (252) 
D

>  <SeqNum>  (252) 
303

>  <Name>  (252) 
N-(5-sulfamoyl-1,3-benzoxazol-2-yl)benzamide

>  <SystematicName>  (252) 
~{N}-(5-sulfamoyl-1,3-benzoxazol-2-yl)benzamide

>  <Synonyms>  (252) 


>  <Type>  (252) 
NON-POLYMER

>  <Formula>  (252) 
C14 H11 N3 O4 S

>  <ObservedFormula>  (252) 
C14 S N3 O4

>  <MolecularWeight>  (252) 
317.32

>  <ModifiedDate>  (252) 
2017-08-04

>  <Parent>  (252) 


>  <OneLetterCode>  (252) 


>  <SubcomponentList>  (252) 


>  <AmbiguousFlag>  (252) 
N

>  <InsertionCode>  (252) 


>  <InstanceId>  (252) 
5TFX_7B1_A_303

>  <ChemCompId>  (252) 
7B1

>  <PdbId>  (252) 
5TFX

>  <ResidueNumber>  (252) 
303

>  <InChI>  (252) 
InChI=1S/C14H11N3O4S/c15-22(19,20)10-6-7-12-11(8-10)16-14(21-12)17-13(18)9-4-2-1-3-5-9/h1-8H,(H2,15,19,20)(H,16,17,18)

>  <InChIKey>  (252) 
UWRXFOQPZCPECA-UHFFFAOYSA-N

>  <SMILES>  (252) 
c1ccc(cc1)C(=O)Nc2nc3cc(ccc3o2)S(=O)(=O)N

>  <MissingHeavyAtoms>  (252) 
0

>  <Model>  (252) 
1

>  <AltIds>  (252) 


>  <pKI>  (252) 
7.22

>  <ChemblID>  (252) 
-

>  <standardized_canonical_smiles>  (252) 
NS(=O)(=O)c1ccc2oc(NC(=O)c3ccccc3)nc2c1

$$$$
5NXO_9HK_A_303
     RDKit          3D

 20 21  0  0  0  0  0  0  0  0999 V2000
   14.7630   -3.7500    9.0810 C   0  0  0  0  0  0  0  0  0  0  0  0
   14.3650   -4.7480    8.1830 C   0  0  0  0  0  0  0  0  0  0  0  0
   13.0650   -4.6890    7.6290 C   0  0  0  0  0  0  0  0  0  0  0  0
   12.6160   -5.6240    6.7530 N   0  0  0  0  0  0  0  0  0  0  0  0
   11.4350   -5.5010    6.2870 O   0  0  0  0  0  0  0  0  0  0  0  0
   13.4500   -6.6070    6.3590 O   0  0  0  0  0  0  0  0  0  0  0  0
   12.2260   -3.6260    7.9790 C   0  0  0  0  0  0  0  0  0  0  0  0
   12.6430   -2.6430    8.8740 C   0  0  0  0  0  0  0  0  0  0  0  0
   13.9230   -2.6840    9.4430 C   0  0  0  0  0  0  0  0  0  0  0  0
   14.4060   -1.6690   10.3550 C   0  0  0  0  0  0  0  0  0  0  0  0
   13.4640   -1.0470   11.2230 C   0  0  0  0  0  0  0  0  0  0  0  0
   12.7450   -1.8230   12.1430 C   0  0  0  0  0  0  0  0  0  0  0  0
   11.8280   -1.2450   12.9950 C   0  0  0  0  0  0  0  0  0  0  0  0
   11.5980    0.1300   12.9290 C   0  0  0  0  0  0  0  0  0  0  0  0
   10.4300    0.7800   14.0800 S   0  0  0  0  0  0  0  0  0  0  0  0
    9.9320    2.0980   13.5750 O   0  0  0  0  0  0  0  0  0  0  0  0
    9.4410   -0.3070   14.3210 O   0  0  0  0  0  0  0  0  0  0  0  0
   11.2520    1.0540   15.5320 N   0  0  0  0  0  0  0  0  0  0  0  0
   12.3080    0.9450   12.0380 C   0  0  0  0  0  0  0  0  0  0  0  0
   13.2250    0.3320   11.1730 C   0  0  0  0  0  0  0  0  0  0  0  0
  2  1  2  0
  9  1  1  0
  3  2  1  0
  4  3  1  0
  7  3  2  0
  5  4  2  0
  6  4  1  0
  8  7  1  0
  9  8  2  0
 10  9  1  0
 11 10  1  0
 12 11  2  0
 20 11  1  0
 13 12  1  0
 14 13  2  0
 15 14  1  0
 19 14  1  0
 16 15  2  0
 17 15  2  0
 18 15  1  0
 20 19  2  0
M  CHG  2   4   1   6  -1
A    1
CAA
A    2
CAB
A    3
CAC
A    4
NAR
A    5
OAT
A    6
OAS
A    7
CAD
A    8
CAE
A    9
CAF
A   10
CAG
A   11
CAH
A   12
CAI
A   13
CAJ
A   14
CAK
A   15
SAN
A   16
OAO
A   17
OAP
A   18
NAQ
A   19
CAL
A   20
CAM
M  END
>  <Id>  (253) 
5NXO_9HK_A_303

>  <ChainId>  (253) 
A

>  <AsymId>  (253) 
D

>  <SeqNum>  (253) 
303

>  <Name>  (253) 
4-[(4-nitrophenyl)methyl]benzenesulfonamide

>  <SystematicName>  (253) 
4-[(4-nitrophenyl)methyl]benzenesulfonamide

>  <Synonyms>  (253) 


>  <Type>  (253) 
NON-POLYMER

>  <Formula>  (253) 
C13 H12 N2 O4 S

>  <ObservedFormula>  (253) 
C13 S N2 O4

>  <MolecularWeight>  (253) 
292.31

>  <ModifiedDate>  (253) 
2018-01-12

>  <Parent>  (253) 


>  <OneLetterCode>  (253) 


>  <SubcomponentList>  (253) 


>  <AmbiguousFlag>  (253) 
N

>  <InsertionCode>  (253) 


>  <InstanceId>  (253) 
5NXO_9HK_A_303

>  <ChemCompId>  (253) 
9HK

>  <PdbId>  (253) 
5NXO

>  <ResidueNumber>  (253) 
303

>  <InChI>  (253) 
InChI=1S/C13H12N2O4S/c14-20(18,19)13-7-3-11(4-8-13)9-10-1-5-12(6-2-10)15(16)17/h1-8H,9H2,(H2,14,18,19)

>  <InChIKey>  (253) 
BTYDYHYETOUTRB-UHFFFAOYSA-N

>  <SMILES>  (253) 
c1cc(ccc1Cc2ccc(cc2)S(=O)(=O)N)[N+](=O)[O-]

>  <MissingHeavyAtoms>  (253) 
0

>  <Model>  (253) 
1

>  <AltIds>  (253) 


>  <pKI>  (253) 
8.3

>  <ChemblID>  (253) 
-

>  <standardized_canonical_smiles>  (253) 
NS(=O)(=O)c1ccc(Cc2ccc([N+](=O)[O-])cc2)cc1

$$$$
6EQU_BVE_A_302
     RDKit          3D

 36 40  0  0  0  0  0  0  0  0999 V2000
   -1.1400    8.1570   13.2080 C   0  0  0  0  0  0  0  0  0  0  0  0
   -3.4850    3.4040   11.1720 C   0  0  0  0  0  0  0  0  0  0  0  0
   -4.6710    3.1990   10.4750 C   0  0  0  0  0  0  0  0  0  0  0  0
   -1.6620    4.3990    9.8370 C   0  0  0  0  0  0  0  0  0  0  0  0
   -5.4700    2.1000   10.7430 C   0  0  0  0  0  0  0  0  0  0  0  0
   -5.0980    1.1910   11.7100 C   0  0  0  0  0  0  0  0  0  0  0  0
   -3.9270    1.3800   12.4130 C   0  0  0  0  0  0  0  0  0  0  0  0
   -3.1260    2.4790   12.1470 C   0  0  0  0  0  0  0  0  0  0  0  0
   -0.7970    5.4450    9.5250 C   0  0  0  0  0  0  0  0  0  0  0  0
   -3.1040    3.5030   15.1580 C   0  0  0  0  0  0  0  0  0  0  0  0
   -3.6820    2.4280   15.8060 C   0  0  0  0  0  0  0  0  0  0  0  0
   -5.0540    2.4030   15.9970 C   0  0  0  0  0  0  0  0  0  0  0  0
   -5.7910    1.0220   16.8190 S   0  0  0  0  0  0  0  0  0  0  0  0
   -5.3250    1.0560   18.1770 O   0  0  0  0  0  0  0  0  0  0  0  0
   -7.2070    1.0810   16.5910 O   0  0  0  0  0  0  0  0  0  0  0  0
   -5.2410   -0.3240   16.1490 N   0  0  0  0  0  0  0  0  0  0  0  0
   -5.8410    3.4500   15.5450 C   0  0  0  0  0  0  0  0  0  0  0  0
   -5.2420    4.5180   14.8950 C   0  0  0  0  0  0  0  0  0  0  0  0
   -3.8690    4.5590   14.6890 C   0  0  0  0  0  0  0  0  0  0  0  0
   -3.2220    5.7170   13.9650 C   0  0  0  0  0  0  0  0  0  0  0  0
   -3.7500    5.8960   12.5550 C   0  0  0  0  0  0  0  0  0  0  0  0
   -2.6850    5.7190   11.5460 N   0  0  0  0  0  0  0  0  0  0  0  0
   -2.6000    4.5390   10.8460 C   0  0  0  0  0  0  0  0  0  0  0  0
    0.1980    5.3020    8.4310 C   0  0  0  0  0  0  0  0  0  0  0  0
    1.5500    5.5530    8.6530 C   0  0  0  0  0  0  0  0  0  0  0  0
    2.4760    5.4240    7.6300 C   0  0  0  0  0  0  0  0  0  0  0  0
    2.0680    5.0430    6.3700 C   0  0  0  0  0  0  0  0  0  0  0  0
    0.7350    4.7900    6.1300 C   0  0  0  0  0  0  0  0  0  0  0  0
   -0.1920    4.9190    7.1510 C   0  0  0  0  0  0  0  0  0  0  0  0
   -0.8930    6.6280   10.2530 C   0  0  0  0  0  0  0  0  0  0  0  0
   -1.8340    6.7600   11.2620 C   0  0  0  0  0  0  0  0  0  0  0  0
   -1.8870    8.0110   12.0430 C   0  0  0  0  0  0  0  0  0  0  0  0
   -1.1540    9.3470   13.9180 C   0  0  0  0  0  0  0  0  0  0  0  0
   -1.9150   10.4080   13.4760 C   0  0  0  0  0  0  0  0  0  0  0  0
   -2.6630   10.2810   12.3250 C   0  0  0  0  0  0  0  0  0  0  0  0
   -2.6510    9.0920   11.6130 C   0  0  0  0  0  0  0  0  0  0  0  0
 32  1  2  0
 33  1  1  0
  3  2  2  0
  8  2  1  0
 23  2  1  0
  5  3  1  0
  9  4  2  0
 23  4  1  0
  6  5  2  0
  7  6  1  0
  8  7  2  0
 24  9  1  0
 30  9  1  0
 11 10  2  0
 19 10  1  0
 12 11  1  0
 13 12  1  0
 17 12  2  0
 14 13  2  0
 15 13  2  0
 16 13  1  0
 18 17  1  0
 19 18  2  0
 20 19  1  0
 21 20  1  0
 22 21  1  0
 23 22  2  0
 31 22  1  0
 25 24  2  0
 29 24  1  0
 26 25  1  0
 27 26  2  0
 28 27  1  0
 29 28  2  0
 31 30  2  0
 32 31  1  0
 36 32  1  0
 34 33  2  0
 35 34  1  0
 36 35  2  0
M  CHG  1  22   1
A    1
C12
A    2
C13
A    3
C18
A    4
C22
A    5
C17
A    6
C16
A    7
C15
A    8
C14
A    9
C21
A   10
C28
A   11
C29
A   12
C24
A   13
S1
A   14
O2
A   15
O1
A   16
N2
A   17
C25
A   18
C26
A   19
C27
A   20
C30
A   21
C31
A   22
N1
A   23
C23
A   24
C1
A   25
C6
A   26
C5
A   27
C4
A   28
C3
A   29
C2
A   30
C20
A   31
C19
A   32
C7
A   33
C11
A   34
C10
A   35
C9
A   36
C8
M  END
>  <Id>  (254) 
6EQU_BVE_A_302

>  <ChainId>  (254) 
A

>  <AsymId>  (254) 
C

>  <SeqNum>  (254) 
302

>  <Name>  (254) 
4-[2-(2,4,6-triphenylpyridin-1-ium-1-yl)ethyl]benzenesulfonamide

>  <SystematicName>  (254) 
4-[2-(2,4,6-triphenylpyridin-1-ium-1-yl)ethyl]benzenesulfonamide

>  <Synonyms>  (254) 


>  <Type>  (254) 
NON-POLYMER

>  <Formula>  (254) 
C31 H27 N2 O2 S

>  <ObservedFormula>  (254) 
C31 S N2 O2

>  <MolecularWeight>  (254) 
491.623

>  <ModifiedDate>  (254) 
2017-12-08

>  <Parent>  (254) 


>  <OneLetterCode>  (254) 


>  <SubcomponentList>  (254) 


>  <AmbiguousFlag>  (254) 
N

>  <InsertionCode>  (254) 


>  <InstanceId>  (254) 
6EQU_BVE_A_302

>  <ChemCompId>  (254) 
BVE

>  <PdbId>  (254) 
6EQU

>  <ResidueNumber>  (254) 
302

>  <InChI>  (254) 
InChI=1S/C31H27N2O2S/c32-36(34,35)29-18-16-24(17-19-29)20-21-33-30(26-12-6-2-7-13-26)22-28(25-10-4-1-5-11-25)23-31(33)27-14-8-3-9-15-27/h1-19,22-23H,20-21H2,(H2,32,34,35)/q+1

>  <InChIKey>  (254) 
PORBWRYRABBHDX-UHFFFAOYSA-N

>  <SMILES>  (254) 
c1ccc(cc1)c2cc([n+](c(c2)c3ccccc3)CCc4ccc(cc4)S(=O)(=O)N)c5ccccc5

>  <MissingHeavyAtoms>  (254) 
0

>  <Model>  (254) 
1

>  <AltIds>  (254) 


>  <pKI>  (254) 
6.38

>  <ChemblID>  (254) 
-

>  <standardized_canonical_smiles>  (254) 
NS(=O)(=O)c1ccc(CC[n+]2c(-c3ccccc3)cc(-c3ccccc3)cc2-c2ccccc2)cc1

$$$$
5NY3_9E8_A_302
     RDKit          3D

 23 24  0  0  0  0  0  0  0  0999 V2000
   -5.4280    1.2880   16.1000 N   0  0  0  0  0  0  0  0  0  0  0  0
   -5.4710    3.9580   15.9490 C   0  0  0  0  0  0  0  0  0  0  0  0
   -4.1130    4.1220   15.5980 C   0  0  0  0  0  0  0  0  0  0  0  0
   -3.6220    5.2530   14.9250 C   0  0  0  0  0  0  0  0  0  0  0  0
   -4.5230    6.2640   14.6060 C   0  0  0  0  0  0  0  0  0  0  0  0
   -5.8590    6.1710   14.9710 C   0  0  0  0  0  0  0  0  0  0  0  0
   -6.3150    5.0470   15.6410 C   0  0  0  0  0  0  0  0  0  0  0  0
   -2.9010    7.5550   13.0000 C   0  0  0  0  0  0  0  0  0  0  0  0
   -4.1330    7.5200   13.9040 C   0  0  0  0  0  0  0  0  0  0  0  0
   -1.8120    9.7490   13.4600 C   0  0  0  0  0  0  0  0  0  0  0  0
    0.2190   14.2630   13.7020 C   0  0  0  0  0  0  0  0  0  0  0  0
   -0.8190   13.3860   13.3620 C   0  0  0  0  0  0  0  0  0  0  0  0
   -0.7890   12.0350   13.8130 C   0  0  0  0  0  0  0  0  0  0  0  0
    1.3130   13.8100   14.4820 C   0  0  0  0  0  0  0  0  0  0  0  0
    0.3340   11.6140   14.5850 C   0  0  0  0  0  0  0  0  0  0  0  0
    1.3650   12.4830   14.9220 C   0  0  0  0  0  0  0  0  0  0  0  0
   -0.9210    9.1620   14.1520 O   0  0  0  0  0  0  0  0  0  0  0  0
   -1.8430   11.1640   13.4060 N   0  0  0  0  0  0  0  0  0  0  0  0
    2.6020   14.8470   14.9150 Cl  0  0  0  0  0  0  0  0  0  0  0  0
   -2.7220    8.9840   12.7550 N   0  0  0  0  0  0  0  0  0  0  0  0
   -6.0400    2.6250   16.8220 S   0  0  0  0  0  0  0  0  0  0  0  0
   -5.4870    2.7110   18.1460 O   0  0  0  0  0  0  0  0  0  0  0  0
   -7.4720    2.6450   16.7050 O   0  0  0  0  0  0  0  0  0  0  0  0
 21  1  1  0
  3  2  2  0
  7  2  1  0
 21  2  1  0
  4  3  1  0
  5  4  2  0
  6  5  1  0
  9  5  1  0
  7  6  2  0
  9  8  1  0
 20  8  1  0
 17 10  2  0
 18 10  1  0
 20 10  1  0
 12 11  2  0
 14 11  1  0
 13 12  1  0
 15 13  2  0
 18 13  1  0
 16 14  2  0
 19 14  1  0
 16 15  1  0
 22 21  2  0
 23 21  2  0
A    1
N1
A    2
C1
A    3
C2
A    4
C3
A    5
C4
A    6
C5
A    7
C6
A    8
C7
A    9
C
A   10
C8
A   11
C10
A   12
C11
A   13
C12
A   14
C13
A   15
C14
A   16
C15
A   17
O8
A   18
N8
A   19
CL1
A   20
N7
A   21
S
A   22
O1
A   23
O2
M  END
>  <Id>  (255) 
5NY3_9E8_A_302

>  <ChainId>  (255) 
A

>  <AsymId>  (255) 
C

>  <SeqNum>  (255) 
302

>  <Name>  (255) 
1-(4-chlorophenyl)-3-[2-(4-sulfamoylphenyl)ethyl]urea

>  <SystematicName>  (255) 
1-(4-chlorophenyl)-3-[2-(4-sulfamoylphenyl)ethyl]urea

>  <Synonyms>  (255) 


>  <Type>  (255) 
NON-POLYMER

>  <Formula>  (255) 
C15 H16 Cl N3 O3 S

>  <ObservedFormula>  (255) 
C15 S Cl N3 O3

>  <MolecularWeight>  (255) 
353.824

>  <ModifiedDate>  (255) 
2018-01-12

>  <Parent>  (255) 


>  <OneLetterCode>  (255) 


>  <SubcomponentList>  (255) 


>  <AmbiguousFlag>  (255) 
N

>  <InsertionCode>  (255) 


>  <InstanceId>  (255) 
5NY3_9E8_A_302

>  <ChemCompId>  (255) 
9E8

>  <PdbId>  (255) 
5NY3

>  <ResidueNumber>  (255) 
302

>  <InChI>  (255) 
InChI=1S/C15H16ClN3O3S/c16-12-3-5-13(6-4-12)19-15(20)18-10-9-11-1-7-14(8-2-11)23(17,21)22/h1-8H,9-10H2,(H2,17,21,22)(H2,18,19,20)

>  <InChIKey>  (255) 
VPDAMEWDQFFXRN-UHFFFAOYSA-N

>  <SMILES>  (255) 
c1cc(ccc1CCNC(=O)Nc2ccc(cc2)Cl)S(=O)(=O)N

>  <MissingHeavyAtoms>  (255) 
0

>  <Model>  (255) 
1

>  <AltIds>  (255) 


>  <pKI>  (255) 
7.47

>  <ChemblID>  (255) 
-

>  <standardized_canonical_smiles>  (255) 
NS(=O)(=O)c1ccc(CCNC(=O)Nc2ccc(Cl)cc2)cc1

$$$$
5N0D_8F2_A_302
     RDKit          3D

 30 33  0  0  0  0  0  0  0  0999 V2000
   -4.5230    3.2400   13.6140 C   0  0  0  0  0  0  0  0  0  0  0  0
   -4.6560    2.1870   14.5160 C   0  0  0  0  0  0  0  0  0  0  0  0
   -5.5350    2.3240   15.5850 C   0  0  0  0  0  0  0  0  0  0  0  0
   -5.9210    0.9610   16.6670 S   0  0  0  0  0  0  0  0  0  0  0  0
   -7.3500    0.8830   16.6690 O   0  0  0  0  0  0  0  0  0  0  0  0
   -5.2600    1.1700   17.9190 O   0  0  0  0  0  0  0  0  0  0  0  0
   -5.3770   -0.3960   16.0110 N   0  0  0  0  0  0  0  0  0  0  0  0
   -6.2480    3.5030   15.7650 C   0  0  0  0  0  0  0  0  0  0  0  0
   -6.0920    4.5540   14.8680 C   0  0  0  0  0  0  0  0  0  0  0  0
   -5.2450    4.4150   13.7770 C   0  0  0  0  0  0  0  0  0  0  0  0
   -5.1400    5.4730   12.7140 C   0  0  0  0  0  0  0  0  0  0  0  0
   -6.2640    5.8060   12.3820 O   0  0  0  0  0  0  0  0  0  0  0  0
   -3.9880    6.0150   12.3030 N   0  0  0  0  0  0  0  0  0  0  0  0
   -3.8560    6.8470   11.0980 C   0  0  0  0  0  0  0  0  0  0  0  0
   -3.2450    6.0130    9.9840 C   0  0  0  0  0  0  0  0  0  0  0  0
   -1.9670    5.3590   10.4200 C   0  0  0  0  0  0  0  0  0  0  0  0
   -1.0110    4.9610    9.4940 C   0  0  0  0  0  0  0  0  0  0  0  0
    0.1570    4.3090    9.8740 C   0  0  0  0  0  0  0  0  0  0  0  0
    1.1350    3.9330    8.9920 O   0  0  0  0  0  0  0  0  0  0  0  0
    0.3670    4.0410   11.2210 C   0  0  0  0  0  0  0  0  0  0  0  0
    1.5780    3.4950   11.5560 O   0  0  0  0  0  0  0  0  0  0  0  0
   -0.5860    4.4240   12.1590 C   0  0  0  0  0  0  0  0  0  0  0  0
   -1.7420    5.0900   11.7690 C   0  0  0  0  0  0  0  0  0  0  0  0
   -2.6910    5.5740   12.8820 C   0  0  0  0  0  0  0  0  0  0  0  0
   -2.1000    6.7680   13.6300 C   0  0  0  0  0  0  0  0  0  0  0  0
   -2.5450    7.0650   14.9330 C   0  0  0  0  0  0  0  0  0  0  0  0
   -2.0600    8.1690   15.6230 C   0  0  0  0  0  0  0  0  0  0  0  0
   -1.1220    8.9990   15.0430 C   0  0  0  0  0  0  0  0  0  0  0  0
   -0.6800    8.7320   13.7640 C   0  0  0  0  0  0  0  0  0  0  0  0
   -1.1690    7.6270   13.0580 C   0  0  0  0  0  0  0  0  0  0  0  0
  2  1  2  0
 10  1  1  0
  3  2  1  0
  4  3  1  0
  8  3  2  0
  5  4  2  0
  6  4  2  0
  7  4  1  0
  9  8  1  0
 10  9  2  0
 11 10  1  0
 12 11  2  0
 13 11  1  0
 14 13  1  0
 24 13  1  0
 15 14  1  0
 16 15  1  0
 17 16  2  0
 23 16  1  0
 18 17  1  0
 19 18  1  0
 20 18  2  0
 21 20  1  0
 22 20  1  0
 23 22  2  0
 24 23  1  0
 25 24  1  0
 26 25  2  0
 30 25  1  0
 27 26  1  0
 28 27  2  0
 29 28  1  0
 30 29  2  0
A    1
C12
A    2
C11
A    3
C10
A    4
S1
A    5
O1
A    6
O2
A    7
N2
A    8
C15
A    9
C14
A   10
C13
A   11
C16
A   12
O3
A   13
N1
A   14
C8
A   15
C9
A   16
C5
A   17
C4
A   18
C3
A   19
O5
A   20
C2
A   21
O4
A   22
C1
A   23
C6
A   24
C7
A   25
C18
A   26
C17
A   27
C22
A   28
C21
A   29
C20
A   30
C19
M  END
>  <Id>  (256) 
5N0D_8F2_A_302

>  <ChainId>  (256) 
A

>  <AsymId>  (256) 
C

>  <SeqNum>  (256) 
302

>  <Name>  (256) 
(R)-4-(6,7-dihydroxy-1-phenyl-3,4-tetrahydroisoquinoline-1H-2-carbonyl)benzenesulfonamide

>  <SystematicName>  (256) 
4-[[(1~{R})-6,7-bis(oxidanyl)-1-phenyl-3,4-dihydro-1~{H}-isoquinolin-2-yl]carbonyl]benzenesulfonamide

>  <Synonyms>  (256) 


>  <Type>  (256) 
NON-POLYMER

>  <Formula>  (256) 
C22 H20 N2 O5 S

>  <ObservedFormula>  (256) 
C22 S N2 O5

>  <MolecularWeight>  (256) 
424.47

>  <ModifiedDate>  (256) 
2017-05-05

>  <Parent>  (256) 


>  <OneLetterCode>  (256) 


>  <SubcomponentList>  (256) 


>  <AmbiguousFlag>  (256) 
N

>  <InsertionCode>  (256) 


>  <InstanceId>  (256) 
5N0D_8F2_A_302

>  <ChemCompId>  (256) 
8F2

>  <PdbId>  (256) 
5N0D

>  <ResidueNumber>  (256) 
302

>  <InChI>  (256) 
InChI=1S/C22H20N2O5S/c23-30(28,29)17-8-6-15(7-9-17)22(27)24-11-10-16-12-19(25)20(26)13-18(16)21(24)14-4-2-1-3-5-14/h1-9,12-13,21,25-26H,10-11H2,(H2,23,28,29)/t21-/m1/s1

>  <InChIKey>  (256) 
UBKCMPKCMMEDIG-OAQYLSRUSA-N

>  <SMILES>  (256) 
c1ccc(cc1)[C@@H]2c3cc(c(cc3CCN2C(=O)c4ccc(cc4)S(=O)(=O)N)O)O

>  <MissingHeavyAtoms>  (256) 
0

>  <Model>  (256) 
1

>  <AltIds>  (256) 


>  <pKI>  (256) 
8.48

>  <ChemblID>  (256) 
-

>  <standardized_canonical_smiles>  (256) 
NS(=O)(=O)c1ccc(C(=O)N2CCc3cc(O)c(O)cc3[C@H]2c2ccccc2)cc1

$$$$
5N0E_8F3_A_302
     RDKit          3D

 30 33  0  0  0  0  0  0  0  0999 V2000
   -4.2260    2.9740   13.7820 C   0  0  0  0  0  0  0  0  0  0  0  0
   -4.6650    1.9290   14.5890 C   0  0  0  0  0  0  0  0  0  0  0  0
   -5.5060    2.2200   15.6580 C   0  0  0  0  0  0  0  0  0  0  0  0
   -6.0280    0.9590   16.7910 S   0  0  0  0  0  0  0  0  0  0  0  0
   -7.4590    0.9570   16.7330 O   0  0  0  0  0  0  0  0  0  0  0  0
   -5.4370    1.2020   18.0720 O   0  0  0  0  0  0  0  0  0  0  0  0
   -5.5270   -0.4440   16.2250 N   0  0  0  0  0  0  0  0  0  0  0  0
   -5.9610    3.5120   15.8890 C   0  0  0  0  0  0  0  0  0  0  0  0
   -5.5440    4.5460   15.0600 C   0  0  0  0  0  0  0  0  0  0  0  0
   -4.6320    4.2770   14.0490 C   0  0  0  0  0  0  0  0  0  0  0  0
   -4.0350    5.3870   13.2330 C   0  0  0  0  0  0  0  0  0  0  0  0
   -4.9160    6.1620   12.8960 O   0  0  0  0  0  0  0  0  0  0  0  0
   -2.7270    5.5000   12.9870 N   0  0  0  0  0  0  0  0  0  0  0  0
   -1.6510    4.6160   13.4630 C   0  0  0  0  0  0  0  0  0  0  0  0
   -1.0190    3.8980   12.2790 C   0  0  0  0  0  0  0  0  0  0  0  0
   -0.7990    4.8010   11.0980 C   0  0  0  0  0  0  0  0  0  0  0  0
   -0.0570    4.3670   10.0060 C   0  0  0  0  0  0  0  0  0  0  0  0
    0.0820    5.1370    8.8540 C   0  0  0  0  0  0  0  0  0  0  0  0
    0.7220    4.6910    7.7280 O   0  0  0  0  0  0  0  0  0  0  0  0
   -0.5380    6.3810    8.7950 C   0  0  0  0  0  0  0  0  0  0  0  0
   -0.5530    7.0290    7.5880 O   0  0  0  0  0  0  0  0  0  0  0  0
   -1.2630    6.8410    9.8860 C   0  0  0  0  0  0  0  0  0  0  0  0
   -1.3850    6.0650   11.0350 C   0  0  0  0  0  0  0  0  0  0  0  0
   -2.2710    6.6430   12.1510 C   0  0  0  0  0  0  0  0  0  0  0  0
   -1.5220    7.6090   13.0770 C   0  0  0  0  0  0  0  0  0  0  0  0
   -0.2570    8.1110   12.7070 C   0  0  0  0  0  0  0  0  0  0  0  0
    0.4540    8.9440   13.5670 C   0  0  0  0  0  0  0  0  0  0  0  0
   -0.0750    9.2980   14.7920 C   0  0  0  0  0  0  0  0  0  0  0  0
   -1.3000    8.7960   15.1810 C   0  0  0  0  0  0  0  0  0  0  0  0
   -2.0190    7.9430   14.3310 C   0  0  0  0  0  0  0  0  0  0  0  0
  2  1  2  0
 10  1  1  0
  3  2  1  0
  4  3  1  0
  8  3  2  0
  5  4  2  0
  6  4  2  0
  7  4  1  0
  9  8  1  0
 10  9  2  0
 11 10  1  0
 12 11  2  0
 13 11  1  0
 14 13  1  0
 24 13  1  0
 15 14  1  0
 16 15  1  0
 17 16  2  0
 23 16  1  0
 18 17  1  0
 19 18  1  0
 20 18  2  0
 21 20  1  0
 22 20  1  0
 23 22  2  0
 24 23  1  0
 25 24  1  0
 26 25  2  0
 30 25  1  0
 27 26  1  0
 28 27  2  0
 29 28  1  0
 30 29  2  0
A    1
C12
A    2
C11
A    3
C10
A    4
S1
A    5
O1
A    6
O2
A    7
N2
A    8
C15
A    9
C14
A   10
C13
A   11
C16
A   12
O3
A   13
N1
A   14
C8
A   15
C9
A   16
C5
A   17
C4
A   18
C3
A   19
O5
A   20
C2
A   21
O4
A   22
C1
A   23
C6
A   24
C7
A   25
C18
A   26
C17
A   27
C22
A   28
C21
A   29
C20
A   30
C19
M  END
>  <Id>  (257) 
5N0E_8F3_A_302

>  <ChainId>  (257) 
A

>  <AsymId>  (257) 
C

>  <SeqNum>  (257) 
302

>  <Name>  (257) 
4-[[(1~{S})-6,7-bis(oxidanyl)-1-phenyl-3,4-dihydro-1~{H}-isoquinolin-2-yl]carbonyl]benzenesulfonamide

>  <SystematicName>  (257) 
4-[[(1~{S})-6,7-bis(oxidanyl)-1-phenyl-3,4-dihydro-1~{H}-isoquinolin-2-yl]carbonyl]benzenesulfonamide

>  <Synonyms>  (257) 


>  <Type>  (257) 
NON-POLYMER

>  <Formula>  (257) 
C22 H20 N2 O5 S

>  <ObservedFormula>  (257) 
C22 S N2 O5

>  <MolecularWeight>  (257) 
424.47

>  <ModifiedDate>  (257) 
2017-05-05

>  <Parent>  (257) 


>  <OneLetterCode>  (257) 


>  <SubcomponentList>  (257) 


>  <AmbiguousFlag>  (257) 
N

>  <InsertionCode>  (257) 


>  <InstanceId>  (257) 
5N0E_8F3_A_302

>  <ChemCompId>  (257) 
8F3

>  <PdbId>  (257) 
5N0E

>  <ResidueNumber>  (257) 
302

>  <InChI>  (257) 
InChI=1S/C22H20N2O5S/c23-30(28,29)17-8-6-15(7-9-17)22(27)24-11-10-16-12-19(25)20(26)13-18(16)21(24)14-4-2-1-3-5-14/h1-9,12-13,21,25-26H,10-11H2,(H2,23,28,29)/t21-/m0/s1

>  <InChIKey>  (257) 
UBKCMPKCMMEDIG-NRFANRHFSA-N

>  <SMILES>  (257) 
c1ccc(cc1)[C@H]2c3cc(c(cc3CCN2C(=O)c4ccc(cc4)S(=O)(=O)N)O)O

>  <MissingHeavyAtoms>  (257) 
0

>  <Model>  (257) 
1

>  <AltIds>  (257) 


>  <pKI>  (257) 
8.44

>  <ChemblID>  (257) 
-

>  <standardized_canonical_smiles>  (257) 
NS(=O)(=O)c1ccc(C(=O)N2CCc3cc(O)c(O)cc3[C@@H]2c2ccccc2)cc1

$$$$
6H2Z_FKE_A_302
     RDKit          3D

 24 26  0  0  0  0  0  0  0  0999 V2000
   -5.1660    2.3790   15.5540 C   0  0  0  0  0  0  0  0  0  0  0  0
   -6.0170    3.3990   15.1590 C   0  0  0  0  0  0  0  0  0  0  0  0
   -5.5480    4.3850   14.3090 C   0  0  0  0  0  0  0  0  0  0  0  0
   -4.2370    4.3630   13.8470 C   0  0  0  0  0  0  0  0  0  0  0  0
   -3.3960    3.3360   14.2590 C   0  0  0  0  0  0  0  0  0  0  0  0
   -3.8540    2.3470   15.1100 C   0  0  0  0  0  0  0  0  0  0  0  0
   -3.7460    5.4080   12.8960 C   0  0  0  0  0  0  0  0  0  0  0  0
   -1.8540    6.4810   11.7970 C   0  0  0  0  0  0  0  0  0  0  0  0
   -1.8200    7.9650   12.1220 C   0  0  0  0  0  0  0  0  0  0  0  0
   -1.0440    8.2310   13.4120 C   0  0  0  0  0  0  0  0  0  0  0  0
   -1.6850    7.4030   14.5240 C   0  0  0  0  0  0  0  0  0  0  0  0
   -1.7180    5.9290   14.1600 C   0  0  0  0  0  0  0  0  0  0  0  0
   -1.0340    9.7160   13.7620 C   0  0  0  0  0  0  0  0  0  0  0  0
   -1.9680   10.5880   13.2140 C   0  0  0  0  0  0  0  0  0  0  0  0
   -1.9240   11.9440   13.4910 C   0  0  0  0  0  0  0  0  0  0  0  0
   -0.9480   12.4510   14.3220 C   0  0  0  0  0  0  0  0  0  0  0  0
   -0.0170   11.6000   14.8800 C   0  0  0  0  0  0  0  0  0  0  0  0
   -0.0610   10.2430   14.6020 C   0  0  0  0  0  0  0  0  0  0  0  0
   -5.7770    1.0710   16.5720 S   0  0  0  0  0  0  0  0  0  0  0  0
   -5.2030    1.2450   17.8730 O   0  0  0  0  0  0  0  0  0  0  0  0
   -7.2040    1.0640   16.4530 O   0  0  0  0  0  0  0  0  0  0  0  0
   -4.5250    5.9340   12.1200 O   0  0  0  0  0  0  0  0  0  0  0  0
   -2.4350    5.6970   12.8980 N   0  0  0  0  0  0  0  0  0  0  0  0
   -5.2380   -0.3210   15.9910 N   0  0  0  0  0  0  0  0  0  0  0  0
  2  1  2  0
  6  1  1  0
 19  1  1  0
  3  2  1  0
  4  3  2  0
  5  4  1  0
  7  4  1  0
  6  5  2  0
 22  7  2  0
 23  7  1  0
  9  8  1  0
 23  8  1  0
 10  9  1  0
 11 10  1  0
 13 10  1  0
 12 11  1  0
 23 12  1  0
 14 13  2  0
 18 13  1  0
 15 14  1  0
 16 15  2  0
 17 16  1  0
 18 17  2  0
 20 19  2  0
 21 19  2  0
 24 19  1  0
A    1
C1
A    2
C2
A    3
C3
A    4
C4
A    5
C5
A    6
C6
A    7
C7
A    8
C8
A    9
C9
A   10
C10
A   11
C11
A   12
C12
A   13
C13
A   14
C14
A   15
C15
A   16
C16
A   17
C17
A   18
C18
A   19
S1
A   20
O1
A   21
O2
A   22
O3
A   23
N2
A   24
N1
M  END
>  <Id>  (258) 
6H2Z_FKE_A_302

>  <ChainId>  (258) 
A

>  <AsymId>  (258) 
C

>  <SeqNum>  (258) 
302

>  <Name>  (258) 
4-(4-phenylpiperidin-1-yl)carbonylbenzenesulfonamide

>  <SystematicName>  (258) 
4-(4-phenylpiperidin-1-yl)carbonylbenzenesulfonamide

>  <Synonyms>  (258) 


>  <Type>  (258) 
NON-POLYMER

>  <Formula>  (258) 
C18 H20 N2 O3 S

>  <ObservedFormula>  (258) 
C18 S N2 O3

>  <MolecularWeight>  (258) 
344.428

>  <ModifiedDate>  (258) 
2018-12-14

>  <Parent>  (258) 


>  <OneLetterCode>  (258) 


>  <SubcomponentList>  (258) 


>  <AmbiguousFlag>  (258) 
N

>  <InsertionCode>  (258) 


>  <InstanceId>  (258) 
6H2Z_FKE_A_302

>  <ChemCompId>  (258) 
FKE

>  <PdbId>  (258) 
6H2Z

>  <ResidueNumber>  (258) 
302

>  <InChI>  (258) 
InChI=1S/C18H20N2O3S/c19-24(22,23)17-8-6-16(7-9-17)18(21)20-12-10-15(11-13-20)14-4-2-1-3-5-14/h1-9,15H,10-13H2,(H2,19,22,23)

>  <InChIKey>  (258) 
JYNGEJUBPGKEKV-UHFFFAOYSA-N

>  <SMILES>  (258) 
c1ccc(cc1)C2CCN(CC2)C(=O)c3ccc(cc3)S(=O)(=O)N

>  <MissingHeavyAtoms>  (258) 
0

>  <Model>  (258) 
1

>  <AltIds>  (258) 


>  <pKI>  (258) 
9.3

>  <ChemblID>  (258) 
-

>  <standardized_canonical_smiles>  (258) 
NS(=O)(=O)c1ccc(C(=O)N2CCC(c3ccccc3)CC2)cc1

$$$$
6H33_FKQ_A_302
     RDKit          3D

 25 27  0  0  0  0  0  0  0  0999 V2000
   -5.5850    4.3590   14.3100 C   0  0  0  0  0  0  0  0  0  0  0  0
   -6.0600    3.3820   15.1690 C   0  0  0  0  0  0  0  0  0  0  0  0
   -5.2090    2.3720   15.5920 C   0  0  0  0  0  0  0  0  0  0  0  0
   -5.8190    1.0940   16.6550 S   0  0  0  0  0  0  0  0  0  0  0  0
   -5.1920    1.2740   17.9320 O   0  0  0  0  0  0  0  0  0  0  0  0
   -7.2480    1.1300   16.5910 O   0  0  0  0  0  0  0  0  0  0  0  0
   -3.8910    2.3420   15.1660 C   0  0  0  0  0  0  0  0  0  0  0  0
   -3.4270    3.3230   14.3070 C   0  0  0  0  0  0  0  0  0  0  0  0
   -4.2670    4.3400   13.8670 C   0  0  0  0  0  0  0  0  0  0  0  0
   -3.7710    5.3670   12.8930 C   0  0  0  0  0  0  0  0  0  0  0  0
   -4.5370    5.8290   12.0650 O   0  0  0  0  0  0  0  0  0  0  0  0
   -2.4670    5.6890   12.9180 N   0  0  0  0  0  0  0  0  0  0  0  0
   -1.7780    5.9570   14.1900 C   0  0  0  0  0  0  0  0  0  0  0  0
   -1.7530    7.4400   14.5170 C   0  0  0  0  0  0  0  0  0  0  0  0
   -1.8740    6.4560   11.8080 C   0  0  0  0  0  0  0  0  0  0  0  0
   -1.8300    7.9480   12.1030 C   0  0  0  0  0  0  0  0  0  0  0  0
   -1.0780    8.2350   13.4020 C   0  0  0  0  0  0  0  0  0  0  0  0
    0.2440    7.7200   13.2520 O   0  0  0  0  0  0  0  0  0  0  0  0
   -1.0390    9.7280   13.7180 C   0  0  0  0  0  0  0  0  0  0  0  0
   -1.8390   10.6300   13.0270 C   0  0  0  0  0  0  0  0  0  0  0  0
   -1.7480   11.9920   13.2660 C   0  0  0  0  0  0  0  0  0  0  0  0
   -0.8570   12.4730   14.2030 C   0  0  0  0  0  0  0  0  0  0  0  0
   -0.0580   11.5930   14.9010 C   0  0  0  0  0  0  0  0  0  0  0  0
   -0.1490   10.2310   14.6610 C   0  0  0  0  0  0  0  0  0  0  0  0
   -5.3410   -0.3210   16.0850 N   0  0  0  0  0  0  0  0  0  0  0  0
  2  1  2  0
  9  1  1  0
  3  2  1  0
  4  3  1  0
  7  3  2  0
  5  4  2  0
  6  4  2  0
 25  4  1  0
  8  7  1  0
  9  8  2  0
 10  9  1  0
 11 10  2  0
 12 10  1  0
 13 12  1  0
 15 12  1  0
 14 13  1  0
 17 14  1  0
 16 15  1  0
 17 16  1  0
 18 17  1  0
 19 17  1  0
 20 19  2  0
 24 19  1  0
 21 20  1  0
 22 21  2  0
 23 22  1  0
 24 23  2  0
A    1
C3
A    2
C2
A    3
C1
A    4
S1
A    5
O1
A    6
O2
A    7
C6
A    8
C5
A    9
C4
A   10
C7
A   11
O3
A   12
N2
A   13
C12
A   14
C11
A   15
C8
A   16
C9
A   17
C10
A   18
O4
A   19
C13
A   20
C14
A   21
C15
A   22
C16
A   23
C17
A   24
C18
A   25
N1
M  END
>  <Id>  (259) 
6H33_FKQ_A_302

>  <ChainId>  (259) 
A

>  <AsymId>  (259) 
C

>  <SeqNum>  (259) 
302

>  <Name>  (259) 
4-(4-oxidanyl-4-phenyl-piperidin-1-yl)carbonylbenzenesulfonamide

>  <SystematicName>  (259) 
4-(4-oxidanyl-4-phenyl-piperidin-1-yl)carbonylbenzenesulfonamide

>  <Synonyms>  (259) 


>  <Type>  (259) 
NON-POLYMER

>  <Formula>  (259) 
C18 H20 N2 O4 S

>  <ObservedFormula>  (259) 
C18 S N2 O4

>  <MolecularWeight>  (259) 
360.427

>  <ModifiedDate>  (259) 
2018-12-14

>  <Parent>  (259) 


>  <OneLetterCode>  (259) 


>  <SubcomponentList>  (259) 


>  <AmbiguousFlag>  (259) 
N

>  <InsertionCode>  (259) 


>  <InstanceId>  (259) 
6H33_FKQ_A_302

>  <ChemCompId>  (259) 
FKQ

>  <PdbId>  (259) 
6H33

>  <ResidueNumber>  (259) 
302

>  <InChI>  (259) 
InChI=1S/C18H20N2O4S/c19-25(23,24)16-8-6-14(7-9-16)17(21)20-12-10-18(22,11-13-20)15-4-2-1-3-5-15/h1-9,22H,10-13H2,(H2,19,23,24)

>  <InChIKey>  (259) 
XEMCUUOBNNOBLG-UHFFFAOYSA-N

>  <SMILES>  (259) 
c1ccc(cc1)C2(CCN(CC2)C(=O)c3ccc(cc3)S(=O)(=O)N)O

>  <MissingHeavyAtoms>  (259) 
0

>  <Model>  (259) 
1

>  <AltIds>  (259) 


>  <pKI>  (259) 
9.22

>  <ChemblID>  (259) 
-

>  <standardized_canonical_smiles>  (259) 
NS(=O)(=O)c1ccc(C(=O)N2CCC(O)(c3ccccc3)CC2)cc1

$$$$
5AMD_45I_A_266
     RDKit          3D

 25 26  0  0  0  0  0  0  0  0999 V2000
   -3.2830    4.6210   11.5130 O   0  0  0  0  0  0  0  0  0  0  0  0
   -4.1970    3.8140   11.5910 C   0  0  0  0  0  0  0  0  0  0  0  0
   -4.9360    3.5660   10.5540 O   0  0  0  0  0  0  0  0  0  0  0  0
   -4.6020    3.1450   12.8460 C   0  0  0  0  0  0  0  0  0  0  0  0
   -4.3310    1.7960   13.0080 C   0  0  0  0  0  0  0  0  0  0  0  0
   -4.7270    1.1050   14.1700 C   0  0  0  0  0  0  0  0  0  0  0  0
   -5.4430    1.7470   15.2210 C   0  0  0  0  0  0  0  0  0  0  0  0
   -5.9680    0.9880   16.6220 S   0  0  0  0  0  0  0  0  0  0  0  0
   -7.3720    1.2830   16.7910 O   0  0  0  0  0  0  0  0  0  0  0  0
   -5.7650   -0.5630   16.4590 N   0  0  0  0  0  0  0  0  0  0  0  0
   -5.1390    1.4140   17.6830 O   0  0  0  0  0  0  0  0  0  0  0  0
   -5.7440    3.1110   15.0450 C   0  0  0  0  0  0  0  0  0  0  0  0
   -5.3820    3.8380   13.8920 C   0  0  0  0  0  0  0  0  0  0  0  0
   -5.7100    5.4360   13.7730 S   0  0  0  0  0  0  0  0  0  0  0  0
   -6.0530    5.9620   15.0450 O   0  0  0  0  0  0  0  0  0  0  0  0
   -6.4740    5.9030   12.6350 O   0  0  0  0  0  0  0  0  0  0  0  0
   -4.3290    6.1490   13.4110 N   0  0  0  0  0  0  0  0  0  0  0  0
   -3.2410    6.1690   14.3940 C   0  0  0  0  0  0  0  0  0  0  0  0
   -1.9020    6.5410   13.7650 C   0  0  0  0  0  0  0  0  0  0  0  0
   -1.8250    8.0100   13.4830 C   0  0  0  0  0  0  0  0  0  0  0  0
   -1.3400    8.8760   14.4620 C   0  0  0  0  0  0  0  0  0  0  0  0
   -1.2690   10.2480   14.1970 C   0  0  0  0  0  0  0  0  0  0  0  0
   -1.6610   10.7440   12.9470 C   0  0  0  0  0  0  0  0  0  0  0  0
   -2.1510    9.8670   11.9670 C   0  0  0  0  0  0  0  0  0  0  0  0
   -2.2210    8.4990   12.2340 C   0  0  0  0  0  0  0  0  0  0  0  0
  2  1  2  0
  3  2  1  0
  4  2  1  0
  5  4  2  0
 13  4  1  0
  6  5  1  0
  7  6  2  0
  8  7  1  0
 12  7  1  0
  9  8  2  0
 10  8  1  0
 11  8  2  0
 13 12  2  0
 14 13  1  0
 15 14  2  0
 16 14  2  0
 17 14  1  0
 18 17  1  0
 19 18  1  0
 20 19  1  0
 21 20  2  0
 25 20  1  0
 22 21  1  0
 23 22  2  0
 24 23  1  0
 25 24  2  0
A    1
O18
A    2
C17
A    3
O17
A    4
C10
A    5
C9
A    6
C8
A    7
C7
A    8
S1
A    9
O6
A   10
N7
A   11
O5
A   12
C12
A   13
C11
A   14
S13
A   15
O15
A   16
O14
A   17
N16
A   18
C19
A   19
C20
A   20
C21
A   21
C26
A   22
C25
A   23
C24
A   24
C23
A   25
C22
M  END
>  <Id>  (260) 
5AMD_45I_A_266

>  <ChainId>  (260) 
A

>  <AsymId>  (260) 
C

>  <SeqNum>  (260) 
266

>  <Name>  (260) 
2-[(2-PHENYLETHYL)SULFAMOYL]-4-SULFAMOYLBENZOIC ACID

>  <SystematicName>  (260) 
2-(2-phenylethylsulfamoyl)-4-sulfamoyl-benzoic acid

>  <Synonyms>  (260) 


>  <Type>  (260) 
non-polymer

>  <Formula>  (260) 
C15 H16 N2 O6 S2

>  <ObservedFormula>  (260) 
C15 S2 N2 O6

>  <MolecularWeight>  (260) 
384.427

>  <ModifiedDate>  (260) 
2015-04-03

>  <Parent>  (260) 


>  <OneLetterCode>  (260) 


>  <SubcomponentList>  (260) 


>  <AmbiguousFlag>  (260) 
N

>  <InsertionCode>  (260) 


>  <InstanceId>  (260) 
5AMD_45I_A_266

>  <ChemCompId>  (260) 
45I

>  <PdbId>  (260) 
5AMD

>  <ResidueNumber>  (260) 
266

>  <InChI>  (260) 
InChI=1S/C15H16N2O6S2/c16-24(20,21)12-6-7-13(15(18)19)14(10-12)25(22,23)17-9-8-11-4-2-1-3-5-11/h1-7,10,17H,8-9H2,(H,18,19)(H2,16,20,21)

>  <InChIKey>  (260) 
UPBRYTJLOYELEW-UHFFFAOYSA-N

>  <MissingHeavyAtoms>  (260) 
0

>  <Model>  (260) 
1

>  <AltIds>  (260) 


>  <pKI>  (260) 
8.55

>  <ChemblID>  (260) 
-

>  <standardized_canonical_smiles>  (260) 
NS(=O)(=O)c1ccc(C(=O)O)c(S(=O)(=O)NCCc2ccccc2)c1

$$$$
3P55_670_A_300
     RDKit          3D

 26 37  0  0  0  0  0  0  0  0999 V2000
   20.3050   11.0480   13.2600 Fe  0  0  0  0  0 10  0  0  0  0  0  0
   17.3950    8.6660   12.2590 N   0  0  0  0  0  0  0  0  0  0  0  0
   16.7770    7.7820   12.8560 N   0  0  0  0  0  0  0  0  0  0  0  0
   17.8640    5.0920   14.7060 C   0  0  0  0  0  0  0  0  0  0  0  0
   17.3760    4.0410   15.4740 C   0  0  0  0  0  0  0  0  0  0  0  0
   13.9490    2.7540   16.8760 O   0  0  0  0  0  0  0  0  0  0  0  0
   18.6470    8.5980   12.6960 C   0  0  0  0  0  0  0  0  0  0  0  0
   17.5050    7.1570   13.6300 N   0  0  0  0  0  0  0  0  0  0  0  0
   17.0330    6.1530   14.3640 C   0  0  0  0  0  0  0  0  0  0  0  0
   16.0530    4.0460   15.9000 C   0  0  0  0  0  0  0  0  0  0  0  0
   15.4490    2.7260   16.8800 S   0  0  0  0  0  0  0  0  0  0  0  0
   15.9630    1.3110   16.2580 N   0  0  0  0  0  0  0  0  0  0  0  0
   18.7490    7.6290   13.5950 C   0  0  0  0  0  0  0  0  0  0  0  0
   15.7110    6.1600   14.7950 C   0  0  0  0  0  0  0  0  0  0  0  0
   15.2210    5.1070   15.5610 C   0  0  0  0  0  0  0  0  0  0  0  0
   15.9520    2.8750   18.2850 O   0  0  0  0  0  0  0  0  0  0  0  0
   19.6440    9.3730   12.2780 C   0  0  0  0  0  0  0  0  0  0  0  0
   20.9340    9.2250   12.5680 C   0  0  0  0  0  0  0  0  0  0  0  0
   21.6110   10.1820   11.9390 C   0  0  0  0  0  0  0  0  0  0  0  0
   20.7390   10.9230   11.2610 C   0  0  0  0  0  0  0  0  0  0  0  0
   19.5240   10.4230   11.4700 C   0  0  0  0  0  0  0  0  0  0  0  0
   19.1080   11.6030   14.8300 C   0  0  0  0  0  0  0  0  0  0  0  0
   19.3310   12.6640   14.0600 C   0  0  0  0  0  0  0  0  0  0  0  0
   20.6400   12.9060   14.0590 C   0  0  0  0  0  0  0  0  0  0  0  0
   21.2260   11.9920   14.8280 C   0  0  0  0  0  0  0  0  0  0  0  0
   20.2800   11.1870   15.3040 C   0  0  0  0  0  0  0  0  0  0  0  0
 17  1  1  0
 18  1  1  0
 19  1  1  0
 20  1  1  0
 21  1  1  0
 22  1  1  0
 23  1  1  0
 24  1  1  0
 25  1  1  0
 26  1  1  0
  3  2  2  0
  7  2  1  0
  8  3  1  0
  5  4  2  0
  9  4  1  0
 10  5  1  0
 11  6  2  0
 13  7  2  0
 17  7  1  0
  9  8  1  0
 13  8  1  0
 14  9  2  0
 11 10  1  0
 15 10  2  0
 12 11  1  0
 16 11  2  0
 15 14  1  0
 18 17  1  0
 21 17  1  0
 19 18  2  0
 20 19  1  0
 21 20  2  0
 23 22  1  0
 26 22  1  0
 24 23  2  0
 25 24  1  0
 26 25  2  0
A    1
FE
A    2
NAA
A    3
NAB
A    4
CAC
A    5
CAD
A    6
OAE
A    7
CAF
A    8
NAG
A    9
CAH
A   10
CAI
A   11
SAJ
A   12
NAK
A   13
CAL
A   14
CAM
A   15
CAN
A   16
OAO
A   17
CAP
A   18
CAQ
A   19
CAR
A   20
CAS
A   21
CAT
A   22
CAU
A   23
CAV
A   24
CAW
A   25
CAX
A   26
CAY
M  END
>  <Id>  (261) 
3P55_670_A_300

>  <ChainId>  (261) 
A

>  <AsymId>  (261) 
B

>  <SeqNum>  (261) 
300

>  <Name>  (261) 
p-(4-ferrocenyl-1H-1,2,3-triazol-1-yl)benzenesulfonamide

>  <SystematicName>  (261) 
null

>  <Synonyms>  (261) 


>  <Type>  (261) 
NON-POLYMER

>  <Formula>  (261) 
C18 H8 Fe N4 O2 S

>  <ObservedFormula>  (261) 
C18 S N4 Fe O2

>  <MolecularWeight>  (261) 
400.192

>  <ModifiedDate>  (261) 
2011-10-07

>  <Parent>  (261) 


>  <OneLetterCode>  (261) 


>  <SubcomponentList>  (261) 


>  <AmbiguousFlag>  (261) 
Y

>  <InsertionCode>  (261) 


>  <InstanceId>  (261) 
3P55_670_A_300

>  <ChemCompId>  (261) 
670

>  <PdbId>  (261) 
3P55

>  <ResidueNumber>  (261) 
300

>  <InChI>  (261) 
InChI=1S/C13H7N4O2S.C5H.Fe/c14-20(18,19)12-7-5-11(6-8-12)17-9-13(15-16-17)10-3-1-2-4-10;1-2-4-5-3-1;/h5-9H,(H2,14,18,19);1H;

>  <InChIKey>  (261) 
SUIAZEHIJKZPJZ-UHFFFAOYSA-N

>  <SMILES>  (261) 
c1cc(ccc1n2cc(nn2)C34C5=C6[Fe]5378912(C6=C74)C3C8=C9C1=C23)S(=O)(=O)N

>  <MissingHeavyAtoms>  (261) 
0

>  <Model>  (261) 
1

>  <AltIds>  (261) 


>  <pKI>  (261) 
7.1

>  <ChemblID>  (261) 
-

>  <standardized_canonical_smiles>  (261) 
NS(=O)(=O)c1ccc(-n2cc([C@]34C5=C6C7=C3[Fe]6754389%10C4=C3[C@@H]8C9=C4%10)nn2)cc1

$$$$
5LJQ_ANV_A_302
     RDKit          3D

 23 25  0  0  0  0  0  0  0  0999 V2000
   -0.7810    7.3030   12.2750 C   0  0  0  0  0  0  0  0  0  0  0  0
   -0.2600    8.1720   13.2800 O   0  0  0  0  0  0  0  0  0  0  0  0
   -0.7440    9.4520   13.3890 C   0  0  0  0  0  0  0  0  0  0  0  0
   -0.1750   10.2240   14.3900 C   0  0  0  0  0  0  0  0  0  0  0  0
   -0.5790   11.5390   14.5470 C   0  0  0  0  0  0  0  0  0  0  0  0
   -1.5420   12.0790   13.7190 C   0  0  0  0  0  0  0  0  0  0  0  0
   -2.1120   11.3040   12.7310 C   0  0  0  0  0  0  0  0  0  0  0  0
   -1.7200    9.9880   12.5580 C   0  0  0  0  0  0  0  0  0  0  0  0
   -1.9770    6.5980   12.8090 C   0  0  0  0  0  0  0  0  0  0  0  0
   -2.0590    5.4430   13.5260 C   0  0  0  0  0  0  0  0  0  0  0  0
   -3.3750    5.2650   13.7670 N   0  0  0  0  0  0  0  0  0  0  0  0
   -4.0950    6.2700   13.2150 N   0  0  0  0  0  0  0  0  0  0  0  0
   -3.2390    7.0790   12.6330 N   0  0  0  0  0  0  0  0  0  0  0  0
   -4.0170    4.2060   14.4740 C   0  0  0  0  0  0  0  0  0  0  0  0
   -3.2670    3.1410   14.9310 C   0  0  0  0  0  0  0  0  0  0  0  0
   -3.8710    2.1020   15.6090 C   0  0  0  0  0  0  0  0  0  0  0  0
   -5.2340    2.1410   15.8480 C   0  0  0  0  0  0  0  0  0  0  0  0
   -6.0020    3.2050   15.3950 C   0  0  0  0  0  0  0  0  0  0  0  0
   -5.3910    4.2400   14.7020 C   0  0  0  0  0  0  0  0  0  0  0  0
   -5.9760    0.8450   16.7830 S   0  0  0  0  0  0  0  0  0  0  0  0
   -5.4630    0.9530   18.1170 O   0  0  0  0  0  0  0  0  0  0  0  0
   -7.3950    0.9430   16.5870 O   0  0  0  0  0  0  0  0  0  0  0  0
   -5.4700   -0.5400   16.1670 N   0  0  0  0  0  0  0  0  0  0  0  0
  2  1  1  0
  9  1  1  0
  3  2  1  0
  4  3  2  0
  8  3  1  0
  5  4  1  0
  6  5  2  0
  7  6  1  0
  8  7  2  0
 10  9  2  0
 13  9  1  0
 11 10  1  0
 12 11  1  0
 14 11  1  0
 13 12  2  0
 15 14  2  0
 19 14  1  0
 16 15  1  0
 17 16  2  0
 18 17  1  0
 20 17  1  0
 19 18  2  0
 21 20  1  0
 22 20  1  0
 23 20  1  0
A    1
C1
A    2
O2
A    3
C4
A    4
C5
A    5
C6
A    6
C7
A    7
C8
A    8
C9
A    9
C16
A   10
C17
A   11
N18
A   12
N19
A   13
N20
A   14
C21
A   15
C22
A   16
C23
A   17
C24
A   18
C25
A   19
C26
A   20
S27
A   21
O28
A   22
O29
A   23
N30
M  END
>  <Id>  (262) 
5LJQ_ANV_A_302

>  <ChainId>  (262) 
A

>  <AsymId>  (262) 
C

>  <SeqNum>  (262) 
302

>  <Name>  (262) 
1-[4-[azanyl-bis(oxidanyl)-$l^{4}-sulfanyl]phenyl]-4-(phenoxymethyl)-1,2,3-triazole

>  <SystematicName>  (262) 
1-[4-[azanyl-bis(oxidanyl)-$l^{4}-sulfanyl]phenyl]-4-(phenoxymethyl)-1,2,3-triazole

>  <Synonyms>  (262) 


>  <Type>  (262) 
NON-POLYMER

>  <Formula>  (262) 
C15 H16 N4 O3 S

>  <ObservedFormula>  (262) 
C15 S N4 O3

>  <MolecularWeight>  (262) 
332.378

>  <ModifiedDate>  (262) 
2017-06-16

>  <Parent>  (262) 


>  <OneLetterCode>  (262) 


>  <SubcomponentList>  (262) 


>  <AmbiguousFlag>  (262) 
N

>  <InsertionCode>  (262) 


>  <InstanceId>  (262) 
5LJQ_ANV_A_302

>  <ChemCompId>  (262) 
ANV

>  <PdbId>  (262) 
5LJQ

>  <ResidueNumber>  (262) 
302

>  <InChI>  (262) 
InChI=1S/C15H16N4O3S/c16-23(20,21)15-8-6-13(7-9-15)19-10-12(17-18-19)11-22-14-4-2-1-3-5-14/h1-10,20-21H,11,16H2

>  <InChIKey>  (262) 
SJPPVLBPVQBKDK-UHFFFAOYSA-N

>  <SMILES>  (262) 
c1ccc(cc1)OCc2cn(nn2)c3ccc(cc3)S(N)(O)O

>  <MissingHeavyAtoms>  (262) 
0

>  <Model>  (262) 
1

>  <AltIds>  (262) 


>  <pKI>  (262) 
9.0

>  <ChemblID>  (262) 
-

>  <standardized_canonical_smiles>  (262) 
NS(O)(O)c1ccc(-n2cc(COc3ccccc3)nn2)cc1

$$$$
3P3H_84A_A_300
     RDKit          3D

 26 37  0  0  0  0  0  0  0  0999 V2000
   15.0790    6.3660   15.1080 C   0  0  0  0  0  0  0  0  0  0  0  0
   19.7170    8.7600   13.4940 Fe  0  0  0  0  0 10  0  0  0  0  0  0
   14.9490    5.2840   15.9790 C   0  0  0  0  0  0  0  0  0  0  0  0
   15.5330    4.0560   15.6660 C   0  0  0  0  0  0  0  0  0  0  0  0
   16.1580    3.8810   14.4300 C   0  0  0  0  0  0  0  0  0  0  0  0
   16.2640    4.9660   13.5560 C   0  0  0  0  0  0  0  0  0  0  0  0
   15.7340    6.2270   13.8860 C   0  0  0  0  0  0  0  0  0  0  0  0
   15.2760    2.7560   16.7890 S   0  0  0  0  0  0  0  0  0  0  0  0
   13.7800    2.7740   16.8210 O   0  0  0  0  0  0  0  0  0  0  0  0
   15.8910    3.0060   18.0960 O   0  0  0  0  0  0  0  0  0  0  0  0
   15.8270    1.4140   16.1750 N   0  0  0  0  0  0  0  0  0  0  0  0
   15.8070    7.2890   13.0530 N   0  0  0  0  0  0  0  0  0  0  0  0
   16.9080    7.8420   12.5600 C   0  0  0  0  0  0  0  0  0  0  0  0
   16.4690    8.8310   11.7840 C   0  0  0  0  0  0  0  0  0  0  0  0
   19.1470   10.8100   13.2560 C   0  0  0  0  0  0  0  0  0  0  0  0
   15.1330    8.7920   11.8540 N   0  0  0  0  0  0  0  0  0  0  0  0
   19.2470   10.4910   14.5470 C   0  0  0  0  0  0  0  0  0  0  0  0
   14.8040    7.8680   12.6100 N   0  0  0  0  0  0  0  0  0  0  0  0
   20.5080   10.1510   14.7870 C   0  0  0  0  0  0  0  0  0  0  0  0
   21.1900   10.2510   13.6460 C   0  0  0  0  0  0  0  0  0  0  0  0
   20.3460   10.6590   12.7000 C   0  0  0  0  0  0  0  0  0  0  0  0
   18.2260    7.4690   12.8190 C   0  0  0  0  0  0  0  0  0  0  0  0
   18.7280    7.1650   14.0150 C   0  0  0  0  0  0  0  0  0  0  0  0
   20.0100    6.8450   13.8610 C   0  0  0  0  0  0  0  0  0  0  0  0
   20.3070    6.9430   12.5640 C   0  0  0  0  0  0  0  0  0  0  0  0
   19.2020    7.3200   11.9220 C   0  0  0  0  0  0  0  0  0  0  0  0
  3  1  2  0
  7  1  1  0
 15  2  1  0
 17  2  1  0
 19  2  1  0
 20  2  1  0
 21  2  1  0
 22  2  1  0
 23  2  1  0
 24  2  1  0
 25  2  1  0
 26  2  1  0
  4  3  1  0
  5  4  2  0
  8  4  1  0
  6  5  1  0
  7  6  2  0
 12  7  1  0
  9  8  2  0
 10  8  2  0
 11  8  1  0
 13 12  1  0
 18 12  1  0
 14 13  2  0
 22 13  1  0
 16 14  1  0
 17 15  1  0
 21 15  1  0
 18 16  2  0
 19 17  2  0
 20 19  1  0
 21 20  2  0
 23 22  1  0
 26 22  1  0
 24 23  2  0
 25 24  1  0
 26 25  2  0
A    1
C1
A    2
FE1
A    3
C2
A    4
C3
A    5
C4
A    6
C5
A    7
C6
A    8
S7
A    9
O8
A   10
O9
A   11
N10
A   12
N11
A   13
C12
A   14
C13
A   15
C14
A   16
N14
A   17
C15
A   18
N15
A   19
C16
A   20
C17
A   21
C18
A   22
C19
A   23
C20
A   24
C21
A   25
C22
A   26
C23
M  END
>  <Id>  (263) 
3P3H_84A_A_300

>  <ChainId>  (263) 
A

>  <AsymId>  (263) 
C

>  <SeqNum>  (263) 
300

>  <Name>  (263) 
p-(5-ferrocenyl-1H-1,2,3-triazol-1-yl)benzenesulfonamide

>  <SystematicName>  (263) 
null

>  <Synonyms>  (263) 


>  <Type>  (263) 
NON-POLYMER

>  <Formula>  (263) 
C18 H8 Fe N4 O2 S

>  <ObservedFormula>  (263) 
C18 S N4 Fe O2

>  <MolecularWeight>  (263) 
400.192

>  <ModifiedDate>  (263) 
2011-09-23

>  <Parent>  (263) 


>  <OneLetterCode>  (263) 


>  <SubcomponentList>  (263) 


>  <AmbiguousFlag>  (263) 
Y

>  <InsertionCode>  (263) 


>  <InstanceId>  (263) 
3P3H_84A_A_300

>  <ChemCompId>  (263) 
84A

>  <PdbId>  (263) 
3P3H

>  <ResidueNumber>  (263) 
300

>  <InChI>  (263) 
InChI=1S/C13H7N4O2S.C5H.Fe/c14-20(18,19)12-7-5-11(6-8-12)17-13(9-15-16-17)10-3-1-2-4-10;1-2-4-5-3-1;/h5-9H,(H2,14,18,19);1H;

>  <InChIKey>  (263) 
WWIHYUIYNLRDPX-UHFFFAOYSA-N

>  <SMILES>  (263) 
c1cc(ccc1n2c(cnn2)C34C5=C6[Fe]5378912(C6=C74)C3C8=C9C1=C23)S(=O)(=O)N

>  <MissingHeavyAtoms>  (263) 
0

>  <Model>  (263) 
1

>  <AltIds>  (263) 


>  <pKI>  (263) 
7.44

>  <ChemblID>  (263) 
-

>  <standardized_canonical_smiles>  (263) 
NS(=O)(=O)c1ccc(-n2nncc2[C@]23C4=C5C6=C2[Fe]56432789C3=C2[C@@H]7C8=C39)cc1

$$$$
1BIC_BCT_A_498
     RDKit          3D

  4  3  0  0  0  0  0  0  0  0999 V2000
   -5.7860    0.3450   16.9680 C   0  0  0  0  0  0  0  0  0  0  0  0
   -5.0860   -0.6540   16.4370 O   0  0  0  0  0  0  0  0  0  0  0  0
   -5.4670    0.8120   18.0630 O   0  0  0  0  0  0  0  0  0  0  0  0
   -6.7860    0.7790   16.2980 O   0  0  0  0  0  0  0  0  0  0  0  0
  2  1  2  0
  3  1  1  0
  4  1  1  0
M  CHG  1   3  -1
A    1
C
A    2
O1
A    3
O2
A    4
O3
M  END
>  <Id>  (264) 
1BIC_BCT_A_498

>  <ChainId>  (264) 
A

>  <AsymId>  (264) 
C

>  <SeqNum>  (264) 
498

>  <Name>  (264) 
BICARBONATE ION

>  <SystematicName>  (264) 
hydrogen carbonate

>  <Synonyms>  (264) 


>  <Type>  (264) 
NON-POLYMER

>  <Formula>  (264) 
C H O3

>  <ObservedFormula>  (264) 
C O3

>  <MolecularWeight>  (264) 
61.017

>  <ModifiedDate>  (264) 
2011-06-04

>  <Parent>  (264) 


>  <OneLetterCode>  (264) 


>  <SubcomponentList>  (264) 


>  <AmbiguousFlag>  (264) 
N

>  <InsertionCode>  (264) 


>  <InstanceId>  (264) 
1BIC_BCT_A_498

>  <ChemCompId>  (264) 
BCT

>  <PdbId>  (264) 
1BIC

>  <ResidueNumber>  (264) 
498

>  <InChI>  (264) 
InChI=1S/CH2O3/c2-1(3)4/h(H2,2,3,4)/p-1

>  <InChIKey>  (264) 
BVKZGUZCCUSVTD-UHFFFAOYSA-M

>  <SMILES>  (264) 
C(=O)(O)[O-]

>  <MissingHeavyAtoms>  (264) 
0

>  <Model>  (264) 
1

>  <AltIds>  (264) 


>  <pKI>  (264) 
7.92

>  <ChemblID>  (264) 
-

>  <standardized_canonical_smiles>  (264) 
NS(=O)(=O)c1ccc(-n2nncc2[C@]23C4=C5C6=C2[Ru]56432789C3=C2[C@@H]7C8=C39)cc1

$$$$
3P3J_498_A_300
     RDKit          3D

 26 37  0  0  0  0  0  0  0  0999 V2000
   15.1000    6.3280   15.1900 C   0  0  0  0  0  0  0  0  0  0  0  0
   19.8700    9.0160   13.5450 Ru  0  0  0  0  0 10  0  0  0  0  0  0
   14.9570    5.2650   16.0840 C   0  0  0  0  0  0  0  0  0  0  0  0
   15.4630    4.0050   15.7550 C   0  0  0  0  0  0  0  0  0  0  0  0
   16.1070    3.7990   14.5330 C   0  0  0  0  0  0  0  0  0  0  0  0
   16.2430    4.8710   13.6470 C   0  0  0  0  0  0  0  0  0  0  0  0
   15.7440    6.1510   13.9650 C   0  0  0  0  0  0  0  0  0  0  0  0
   15.2620    2.7370   16.9230 S   0  0  0  0  0  0  0  0  0  0  0  0
   13.7670    2.6750   16.9460 O   0  0  0  0  0  0  0  0  0  0  0  0
   15.8860    3.0470   18.2130 O   0  0  0  0  0  0  0  0  0  0  0  0
   15.9040    1.4180   16.3490 N   0  0  0  0  0  0  0  0  0  0  0  0
   15.8960    7.2170   13.1460 N   0  0  0  0  0  0  0  0  0  0  0  0
   17.0300    7.7720   12.7240 C   0  0  0  0  0  0  0  0  0  0  0  0
   16.6360    8.7810   11.9480 C   0  0  0  0  0  0  0  0  0  0  0  0
   19.3200   11.2320   13.3860 C   0  0  0  0  0  0  0  0  0  0  0  0
   15.2980    8.7650   11.9580 N   0  0  0  0  0  0  0  0  0  0  0  0
   19.7500   11.0260   14.6350 C   0  0  0  0  0  0  0  0  0  0  0  0
   14.9240    7.8290   12.6780 N   0  0  0  0  0  0  0  0  0  0  0  0
   21.0360   10.6960   14.5730 C   0  0  0  0  0  0  0  0  0  0  0  0
   21.4100   10.6890   13.2910 C   0  0  0  0  0  0  0  0  0  0  0  0
   20.3450   11.0240   12.5590 C   0  0  0  0  0  0  0  0  0  0  0  0
   18.3390    7.3950   13.0270 C   0  0  0  0  0  0  0  0  0  0  0  0
   18.7730    7.1460   14.2660 C   0  0  0  0  0  0  0  0  0  0  0  0
   20.0660    6.8330   14.2030 C   0  0  0  0  0  0  0  0  0  0  0  0
   20.4380    6.8880   12.9200 C   0  0  0  0  0  0  0  0  0  0  0  0
   19.3740    7.2360   12.1950 C   0  0  0  0  0  0  0  0  0  0  0  0
  3  1  2  0
  7  1  1  0
 15  2  1  0
 17  2  1  0
 19  2  1  0
 20  2  1  0
 21  2  1  0
 22  2  1  0
 23  2  1  0
 24  2  1  0
 25  2  1  0
 26  2  1  0
  4  3  1  0
  5  4  2  0
  8  4  1  0
  6  5  1  0
  7  6  2  0
 12  7  1  0
  9  8  2  0
 10  8  2  0
 11  8  1  0
 13 12  1  0
 18 12  1  0
 14 13  2  0
 22 13  1  0
 16 14  1  0
 17 15  1  0
 21 15  1  0
 18 16  2  0
 19 17  2  0
 20 19  1  0
 21 20  2  0
 23 22  1  0
 26 22  1  0
 24 23  2  0
 25 24  1  0
 26 25  2  0
A    1
C1
A    2
RU1
A    3
C2
A    4
C3
A    5
C4
A    6
C5
A    7
C6
A    8
S7
A    9
O8
A   10
O9
A   11
N10
A   12
N11
A   13
C12
A   14
C13
A   15
C14
A   16
N14
A   17
C15
A   18
N15
A   19
C16
A   20
C17
A   21
C18
A   22
C19
A   23
C20
A   24
C21
A   25
C22
A   26
C23
M  END
>  <Id>  (265) 
3P3J_498_A_300

>  <ChainId>  (265) 
A

>  <AsymId>  (265) 
B

>  <SeqNum>  (265) 
300

>  <Name>  (265) 
p-(5-ruthenocenyl-1H-1,2,3-triazol-1-yl)benzenesulfonamide

>  <SystematicName>  (265) 
null

>  <Synonyms>  (265) 


>  <Type>  (265) 
NON-POLYMER

>  <Formula>  (265) 
C18 H8 N4 O2 Ru S

>  <ObservedFormula>  (265) 
C18 Ru S N4 O2

>  <MolecularWeight>  (265) 
445.417

>  <ModifiedDate>  (265) 
2011-09-16

>  <Parent>  (265) 


>  <OneLetterCode>  (265) 


>  <SubcomponentList>  (265) 


>  <AmbiguousFlag>  (265) 
Y

>  <InsertionCode>  (265) 


>  <InstanceId>  (265) 
3P3J_498_A_300

>  <ChemCompId>  (265) 
498

>  <PdbId>  (265) 
3P3J

>  <ResidueNumber>  (265) 
300

>  <InChI>  (265) 
InChI=1S/C13H7N4O2S.C5H.Ru/c14-20(18,19)12-7-5-11(6-8-12)17-13(9-15-16-17)10-3-1-2-4-10;1-2-4-5-3-1;/h5-9H,(H2,14,18,19);1H;

>  <InChIKey>  (265) 
HKHVKGOHVABJOK-UHFFFAOYSA-N

>  <SMILES>  (265) 
c1cc(ccc1n2c(cnn2)C34C5=C6[Ru]5378912(C6=C74)C3C8=C9C1=C23)S(=O)(=O)N

>  <MissingHeavyAtoms>  (265) 
0

>  <Model>  (265) 
1

>  <AltIds>  (265) 


>  <pKI>  (265) 
7.92

>  <ChemblID>  (265) 
-

>  <standardized_canonical_smiles>  (265) 
NS(=O)(=O)c1ccc(-n2nncc2[C@]23C4=C5C6=C2[Ru]56432789C3=C2[C@@H]7C8=C39)cc1

$$$$
5NXG_RA1_A_302
     RDKit          3D

 23 24  0  0  0  0  0  0  0  0999 V2000
   -1.9090    9.6500   14.4050 Cl  0  0  0  0  0  0  0  0  0  0  0  0
   -2.1970    9.6290   12.6930 C   0  0  0  0  0  0  0  0  0  0  0  0
   -1.4020   10.5210   11.9450 C   0  0  0  0  0  0  0  0  0  0  0  0
   -1.5820   10.5720   10.5520 C   0  0  0  0  0  0  0  0  0  0  0  0
   -0.7450   11.4800    9.7440 N   0  0  0  0  0  0  0  0  0  0  0  0
   -0.3400   11.0910    8.6750 O   0  0  0  0  0  0  0  0  0  0  0  0
   -0.4750   12.5790   10.1520 O   0  0  0  0  0  0  0  0  0  0  0  0
   -2.5280    9.7940    9.8610 C   0  0  0  0  0  0  0  0  0  0  0  0
   -3.3210    8.9380   10.5930 C   0  0  0  0  0  0  0  0  0  0  0  0
   -3.1500    8.8580   11.9830 C   0  0  0  0  0  0  0  0  0  0  0  0
   -4.0770    7.9240   12.6670 C   0  0  0  0  0  0  0  0  0  0  0  0
   -5.3080    8.0890   12.6520 O   0  0  0  0  0  0  0  0  0  0  0  0
   -3.5290    6.9420   13.3900 N   0  0  0  0  0  0  0  0  0  0  0  0
   -4.1710    5.9860   14.1890 C   0  0  0  0  0  0  0  0  0  0  0  0
   -5.5350    5.9230   14.4990 C   0  0  0  0  0  0  0  0  0  0  0  0
   -6.0110    4.8970   15.2860 C   0  0  0  0  0  0  0  0  0  0  0  0
   -3.2940    4.9870   14.6750 C   0  0  0  0  0  0  0  0  0  0  0  0
   -3.8040    3.9430   15.4260 C   0  0  0  0  0  0  0  0  0  0  0  0
   -5.1940    3.8690   15.7630 C   0  0  0  0  0  0  0  0  0  0  0  0
   -5.8320    2.5820   16.6680 S   0  0  0  0  0  0  0  0  0  0  0  0
   -5.2980    2.6950   17.9980 O   0  0  0  0  0  0  0  0  0  0  0  0
   -7.2760    2.6840   16.5340 O   0  0  0  0  0  0  0  0  0  0  0  0
   -5.2680    1.2370   16.0270 N   0  0  0  0  0  0  0  0  0  0  0  0
  2  1  1  0
  3  2  2  0
 10  2  1  0
  4  3  1  0
  5  4  1  0
  8  4  2  0
  6  5  1  0
  7  5  2  0
  9  8  1  0
 10  9  2  0
 11 10  1  0
 12 11  2  0
 13 11  1  0
 14 13  1  0
 15 14  2  0
 17 14  1  0
 16 15  1  0
 19 16  2  0
 18 17  2  0
 19 18  1  0
 20 19  1  0
 21 20  2  0
 22 20  2  0
 23 20  1  0
M  CHG  2   5   1   6  -1
A    1
CL
A    2
C10
A    3
C9
A    4
C8
A    5
N2
A    6
O4
A    7
O3
A    8
C7
A    9
C6
A   10
C5
A   11
C4
A   12
O2
A   13
N1
A   14
C3
A   15
C2
A   16
C1
A   17
C11
A   18
C12
A   19
C
A   20
S
A   21
O
A   22
O1
A   23
N
M  END
>  <Id>  (266) 
5NXG_RA1_A_302

>  <ChainId>  (266) 
A

>  <AsymId>  (266) 
C

>  <SeqNum>  (266) 
302

>  <Name>  (266) 
2-chloranyl-4-nitro-~{N}-(4-sulfamoylphenyl)benzamide

>  <SystematicName>  (266) 
2-chloranyl-4-nitro-~{N}-(4-sulfamoylphenyl)benzamide

>  <Synonyms>  (266) 


>  <Type>  (266) 
NON-POLYMER

>  <Formula>  (266) 
C13 H10 Cl N3 O5 S

>  <ObservedFormula>  (266) 
C13 S Cl N3 O5

>  <MolecularWeight>  (266) 
355.754

>  <ModifiedDate>  (266) 
2018-01-12

>  <Parent>  (266) 


>  <OneLetterCode>  (266) 


>  <SubcomponentList>  (266) 


>  <AmbiguousFlag>  (266) 
N

>  <InsertionCode>  (266) 


>  <InstanceId>  (266) 
5NXG_RA1_A_302

>  <ChemCompId>  (266) 
RA1

>  <PdbId>  (266) 
5NXG

>  <ResidueNumber>  (266) 
302

>  <InChI>  (266) 
InChI=1S/C13H10ClN3O5S/c14-12-7-9(17(19)20)3-6-11(12)13(18)16-8-1-4-10(5-2-8)23(15,21)22/h1-7H,(H,16,18)(H2,15,21,22)

>  <InChIKey>  (266) 
RYNWTIXQTVFOEO-UHFFFAOYSA-N

>  <SMILES>  (266) 
c1cc(ccc1NC(=O)c2ccc(cc2Cl)[N+](=O)[O-])S(=O)(=O)N

>  <MissingHeavyAtoms>  (266) 
0

>  <Model>  (266) 
1

>  <AltIds>  (266) 


>  <pKI>  (266) 
8.52

>  <ChemblID>  (266) 
-

>  <standardized_canonical_smiles>  (266) 
NS(=O)(=O)c1ccc(NC(=O)c2ccc([N+](=O)[O-])cc2Cl)cc1

$$$$
4ILX_1EZ_A_303
     RDKit          3D

 24 27  0  0  0  0  0  0  0  0999 V2000
   17.8210    6.0380   12.8160 C   0  0  0  0  0  0  0  0  0  0  0  0
   19.4910    8.0940   12.6480 C   0  0  0  0  0  0  0  0  0  0  0  0
   19.0980   10.5830   12.9650 C   0  0  0  0  0  0  0  0  0  0  0  0
   21.3710    9.7480   12.5410 C   0  0  0  0  0  0  0  0  0  0  0  0
   19.2300   10.1720   14.3830 C   0  0  0  0  0  0  0  0  0  0  0  0
   19.6450    7.9520   14.0350 C   0  0  0  0  0  0  0  0  0  0  0  0
   20.8570    8.3940   12.0600 C   0  0  0  0  0  0  0  0  0  0  0  0
   17.5390    1.8980   15.5140 C   0  0  0  0  0  0  0  0  0  0  0  0
   15.8600   -0.7290   16.1160 N   0  0  0  0  0  0  0  0  0  0  0  0
   15.4000    0.7480   16.6980 S   0  0  0  0  0  0  0  0  0  0  0  0
   13.9660    0.9130   16.6430 O   0  0  0  0  0  0  0  0  0  0  0  0
   15.8350    0.8910   18.0850 O   0  0  0  0  0  0  0  0  0  0  0  0
   16.1690    2.0280   15.7480 C   0  0  0  0  0  0  0  0  0  0  0  0
   15.4400    3.1060   15.2520 C   0  0  0  0  0  0  0  0  0  0  0  0
   16.1250    4.0810   14.4970 C   0  0  0  0  0  0  0  0  0  0  0  0
   17.5050    3.9510   14.2760 C   0  0  0  0  0  0  0  0  0  0  0  0
   18.2950    4.8700   13.4990 N   0  0  0  0  0  0  0  0  0  0  0  0
   16.6560    6.4180   12.8440 O   0  0  0  0  0  0  0  0  0  0  0  0
   18.8750    6.8090   12.0370 C   0  0  0  0  0  0  0  0  0  0  0  0
   18.4680    9.2960   12.5080 C   0  0  0  0  0  0  0  0  0  0  0  0
   20.3810   10.8270   12.2940 C   0  0  0  0  0  0  0  0  0  0  0  0
   21.4940    9.3320   13.9580 C   0  0  0  0  0  0  0  0  0  0  0  0
   20.2060    9.0470   14.5650 C   0  0  0  0  0  0  0  0  0  0  0  0
   18.2100    2.8630   14.7720 C   0  0  0  0  0  0  0  0  0  0  0  0
 17  1  1  0
 18  1  2  0
 19  1  1  0
  6  2  1  0
  7  2  1  0
 19  2  1  0
 20  2  1  0
  5  3  1  0
 20  3  1  0
 21  3  1  0
  7  4  1  0
 21  4  1  0
 22  4  1  0
 23  5  1  0
 23  6  1  0
 13  8  2  0
 24  8  1  0
 10  9  1  0
 11 10  2  0
 12 10  2  0
 13 10  1  0
 14 13  1  0
 15 14  2  0
 16 15  1  0
 17 16  1  0
 24 16  2  0
 23 22  1  0
A    1
C10
A    2
C13
A    3
C15
A    4
C17
A    5
C20
A    6
C21
A    7
C22
A    8
C24
A    9
N01
A   10
S02
A   11
O03
A   12
O04
A   13
C05
A   14
C06
A   15
C07
A   16
C08
A   17
N09
A   18
O11
A   19
C12
A   20
C14
A   21
C16
A   22
C18
A   23
C19
A   24
C23
M  END
>  <Id>  (267) 
4ILX_1EZ_A_303

>  <ChainId>  (267) 
A

>  <AsymId>  (267) 
D

>  <SeqNum>  (267) 
303

>  <Name>  (267) 
N-(4-sulfamoylphenyl)-2-[(3S,5S,7S)-tricyclo[3.3.1.1~3,7~]dec-1-yl]acetamide

>  <SystematicName>  (267) 
2-(1-adamantyl)-N-(4-sulfamoylphenyl)ethanamide

>  <Synonyms>  (267) 


>  <Type>  (267) 
NON-POLYMER

>  <Formula>  (267) 
C18 H24 N2 O3 S

>  <ObservedFormula>  (267) 
C18 S N2 O3

>  <MolecularWeight>  (267) 
348.46

>  <ModifiedDate>  (267) 
2013-02-08

>  <Parent>  (267) 


>  <OneLetterCode>  (267) 


>  <SubcomponentList>  (267) 


>  <AmbiguousFlag>  (267) 
N

>  <InsertionCode>  (267) 


>  <InstanceId>  (267) 
4ILX_1EZ_A_303

>  <ChemCompId>  (267) 
1EZ

>  <PdbId>  (267) 
4ILX

>  <ResidueNumber>  (267) 
303

>  <InChI>  (267) 
InChI=1S/C18H24N2O3S/c19-24(22,23)16-3-1-15(2-4-16)20-17(21)11-18-8-12-5-13(9-18)7-14(6-12)10-18/h1-4,12-14H,5-11H2,(H,20,21)(H2,19,22,23)/t12-,13+,14-,18-

>  <InChIKey>  (267) 
IOBDJZDMMNHNAM-WXZYKRPKSA-N

>  <SMILES>  (267) 
c1cc(ccc1NC(=O)CC23CC4CC(C2)CC(C4)C3)S(=O)(=O)N

>  <MissingHeavyAtoms>  (267) 
0

>  <Model>  (267) 
1

>  <AltIds>  (267) 


>  <pKI>  (267) 
6.63

>  <ChemblID>  (267) 
-

>  <standardized_canonical_smiles>  (267) 
NS(=O)(=O)c1ccc(NC(=O)C[C@]23C[C@H]4C[C@H](C[C@H](C4)C2)C3)cc1

$$$$
5WEX_8JS_A_303
     RDKit          3D

 21 22  0  0  0  0  0  0  0  0999 V2000
    1.6950    9.4390   82.6240 C   0  0  0  0  0  0  0  0  0  0  0  0
    0.9620    8.5830   84.6970 C   0  0  0  0  0  0  0  0  0  0  0  0
   -2.3480    5.0820   84.9110 C   0  0  0  0  0  0  0  0  0  0  0  0
   -0.1750    4.0400   84.9620 C   0  0  0  0  0  0  0  0  0  0  0  0
    2.6530   10.1640   83.2590 C   0  0  0  0  0  0  0  0  0  0  0  0
    1.9280    9.3340   85.3440 C   0  0  0  0  0  0  0  0  0  0  0  0
   -2.8580    4.0220   85.6400 C   0  0  0  0  0  0  0  0  0  0  0  0
   -0.6940    2.9800   85.6760 C   0  0  0  0  0  0  0  0  0  0  0  0
    0.8290    8.6310   83.3180 C   0  0  0  0  0  0  0  0  0  0  0  0
   -1.0070    5.0770   84.5790 C   0  0  0  0  0  0  0  0  0  0  0  0
    2.7900   10.1260   84.6340 C   0  0  0  0  0  0  0  0  0  0  0  0
   -2.0230    2.9550   86.0230 C   0  0  0  0  0  0  0  0  0  0  0  0
   -0.9720    6.8990   82.9800 C   0  0  0  0  0  0  0  0  0  0  0  0
   -2.1590    0.2650   86.3070 N   0  0  0  0  0  0  0  0  0  0  0  0
   -0.1370    7.9260   82.5610 N   0  0  0  0  0  0  0  0  0  0  0  0
   -0.3700    6.1000   83.8780 N   0  0  0  0  0  0  0  0  0  0  0  0
   -2.1250    1.7760   88.2660 O   0  0  0  0  0  0  0  0  0  0  0  0
   -4.1370    1.7300   86.8560 O   0  0  0  0  0  0  0  0  0  0  0  0
    3.7700   10.8730   85.2600 F   0  0  0  0  0  0  0  0  0  0  0  0
   -2.6460    6.8290   82.2870 S   0  0  0  0  0  0  0  0  0  0  0  0
   -2.6930    1.6170   86.9690 S   0  0  0  0  0  0  0  0  0  0  0  0
  5  1  2  0
  9  1  1  0
  6  2  1  0
  9  2  2  0
  7  3  2  0
 10  3  1  0
  8  4  1  0
 10  4  2  0
 11  5  1  0
 11  6  2  0
 12  7  1  0
 12  8  2  0
 15  9  1  0
 16 10  1  0
 19 11  1  0
 21 12  1  0
 15 13  1  0
 16 13  1  0
 20 13  2  0
 21 14  1  0
 21 17  2  0
 21 18  2  0
A    1
C16
A    2
C21
A    3
C5
A    4
C13
A    5
C17
A    6
C20
A    7
C6
A    8
C12
A    9
C15
A   10
C4
A   11
C18
A   12
C7
A   13
C2
A   14
N10
A   15
N14
A   16
N3
A   17
O9
A   18
O11
A   19
F19
A   20
S1
A   21
S8
M  END
>  <Id>  (268) 
5WEX_8JS_A_303

>  <ChainId>  (268) 
A

>  <AsymId>  (268) 
D

>  <SeqNum>  (268) 
303

>  <Name>  (268) 
4-{[(4-fluorophenyl)carbamothioyl]amino}benzene-1-sulfonamide

>  <SystematicName>  (268) 
1-(4-fluorophenyl)-3-(4-sulfamoylphenyl)thiourea

>  <Synonyms>  (268) 


>  <Type>  (268) 
NON-POLYMER

>  <Formula>  (268) 
C13 H12 F N3 O2 S2

>  <ObservedFormula>  (268) 
C13 S2 F N3 O2

>  <MolecularWeight>  (268) 
325.382

>  <ModifiedDate>  (268) 
2017-10-06

>  <Parent>  (268) 


>  <OneLetterCode>  (268) 


>  <SubcomponentList>  (268) 


>  <AmbiguousFlag>  (268) 
N

>  <InsertionCode>  (268) 


>  <InstanceId>  (268) 
5WEX_8JS_A_303

>  <ChemCompId>  (268) 
8JS

>  <PdbId>  (268) 
5WEX

>  <ResidueNumber>  (268) 
303

>  <InChI>  (268) 
InChI=1S/C13H12FN3O2S2/c14-9-1-3-10(4-2-9)16-13(20)17-11-5-7-12(8-6-11)21(15,18)19/h1-8H,(H2,15,18,19)(H2,16,17,20)

>  <InChIKey>  (268) 
VUDOFEJVAFMLEC-UHFFFAOYSA-N

>  <SMILES>  (268) 
c1cc(ccc1NC(=S)Nc2ccc(cc2)S(=O)(=O)N)F

>  <MissingHeavyAtoms>  (268) 
0

>  <Model>  (268) 
1

>  <AltIds>  (268) 


>  <pKI>  (268) 
7.85

>  <ChemblID>  (268) 
-

>  <standardized_canonical_smiles>  (268) 
NS(=O)(=O)c1ccc(NC(=S)Nc2ccc(F)cc2)cc1

$$$$
5ULN_8JS_A_303
     RDKit          3D

 21 22  0  0  0  0  0  0  0  0999 V2000
    1.7260    8.9670   82.3180 C   0  0  0  0  0  0  0  0  0  0  0  0
    0.9020    8.3100   84.4460 C   0  0  0  0  0  0  0  0  0  0  0  0
   -0.3360    3.6880   84.6670 C   0  0  0  0  0  0  0  0  0  0  0  0
   -2.5020    4.7220   84.8070 C   0  0  0  0  0  0  0  0  0  0  0  0
    2.7770    9.6380   82.9240 C   0  0  0  0  0  0  0  0  0  0  0  0
    1.9470    9.0150   85.0380 C   0  0  0  0  0  0  0  0  0  0  0  0
   -0.8370    2.6010   85.3810 C   0  0  0  0  0  0  0  0  0  0  0  0
   -2.9980    3.6500   85.4910 C   0  0  0  0  0  0  0  0  0  0  0  0
    0.7720    8.2900   83.0630 C   0  0  0  0  0  0  0  0  0  0  0  0
   -1.1980    4.7310   84.3720 C   0  0  0  0  0  0  0  0  0  0  0  0
    2.9080    9.6780   84.2980 C   0  0  0  0  0  0  0  0  0  0  0  0
   -2.1740    2.5690   85.7900 C   0  0  0  0  0  0  0  0  0  0  0  0
   -1.1390    6.5910   82.7740 C   0  0  0  0  0  0  0  0  0  0  0  0
   -2.2430   -0.1120   86.0610 N   0  0  0  0  0  0  0  0  0  0  0  0
   -0.3000    7.6480   82.3620 N   0  0  0  0  0  0  0  0  0  0  0  0
   -0.5800    5.7740   83.6570 N   0  0  0  0  0  0  0  0  0  0  0  0
   -2.2230    1.3840   88.0710 O   0  0  0  0  0  0  0  0  0  0  0  0
   -4.2560    1.3210   86.6260 O   0  0  0  0  0  0  0  0  0  0  0  0
    3.9580   10.3640   84.9070 F   0  0  0  0  0  0  0  0  0  0  0  0
   -2.6500    6.3740   82.1360 S   0  0  0  0  0  0  0  0  0  0  0  0
   -2.7980    1.2330   86.7480 S   0  0  0  0  0  0  0  0  0  0  0  0
  5  1  2  0
  9  1  1  0
  6  2  1  0
  9  2  2  0
  7  3  2  0
 10  3  1  0
  8  4  1  0
 10  4  2  0
 11  5  1  0
 11  6  2  0
 12  7  1  0
 12  8  2  0
 15  9  1  0
 16 10  1  0
 19 11  1  0
 21 12  1  0
 15 13  1  0
 16 13  1  0
 20 13  2  0
 21 14  1  0
 21 17  2  0
 21 18  2  0
A    1
C16
A    2
C21
A    3
C5
A    4
C13
A    5
C17
A    6
C20
A    7
C6
A    8
C12
A    9
C15
A   10
C4
A   11
C18
A   12
C7
A   13
C2
A   14
N10
A   15
N14
A   16
N3
A   17
O9
A   18
O11
A   19
F19
A   20
S1
A   21
S8
M  END
>  <Id>  (269) 
5ULN_8JS_A_303

>  <ChainId>  (269) 
A

>  <AsymId>  (269) 
D

>  <SeqNum>  (269) 
303

>  <Name>  (269) 
4-{[(4-fluorophenyl)carbamothioyl]amino}benzene-1-sulfonamide

>  <SystematicName>  (269) 
1-(4-fluorophenyl)-3-(4-sulfamoylphenyl)thiourea

>  <Synonyms>  (269) 


>  <Type>  (269) 
NON-POLYMER

>  <Formula>  (269) 
C13 H12 F N3 O2 S2

>  <ObservedFormula>  (269) 
C13 S2 F N3 O2

>  <MolecularWeight>  (269) 
325.382

>  <ModifiedDate>  (269) 
2017-10-06

>  <Parent>  (269) 


>  <OneLetterCode>  (269) 


>  <SubcomponentList>  (269) 


>  <AmbiguousFlag>  (269) 
N

>  <InsertionCode>  (269) 


>  <InstanceId>  (269) 
5ULN_8JS_A_303

>  <ChemCompId>  (269) 
8JS

>  <PdbId>  (269) 
5ULN

>  <ResidueNumber>  (269) 
303

>  <InChI>  (269) 
InChI=1S/C13H12FN3O2S2/c14-9-1-3-10(4-2-9)16-13(20)17-11-5-7-12(8-6-11)21(15,18)19/h1-8H,(H2,15,18,19)(H2,16,17,20)

>  <InChIKey>  (269) 
VUDOFEJVAFMLEC-UHFFFAOYSA-N

>  <SMILES>  (269) 
c1cc(ccc1NC(=S)Nc2ccc(cc2)S(=O)(=O)N)F

>  <MissingHeavyAtoms>  (269) 
0

>  <Model>  (269) 
1

>  <AltIds>  (269) 


>  <pKI>  (269) 
7.85

>  <ChemblID>  (269) 
-

>  <standardized_canonical_smiles>  (269) 
NS(=O)(=O)c1ccc(NC(=S)Nc2ccc(F)cc2)cc1

$$$$
5NXI_9DE_A_302
     RDKit          3D

 21 22  0  0  0  0  0  0  0  0999 V2000
   -5.8530    6.1320   14.9420 C   0  0  0  0  0  0  0  0  0  0  0  0
   -6.2710    5.0080   15.6220 C   0  0  0  0  0  0  0  0  0  0  0  0
   -5.3930    3.9830   15.9740 C   0  0  0  0  0  0  0  0  0  0  0  0
   -6.0280    2.6350   16.8700 S   0  0  0  0  0  0  0  0  0  0  0  0
   -5.4920    2.7700   18.2670 O   0  0  0  0  0  0  0  0  0  0  0  0
   -7.5050    2.7090   16.8090 O   0  0  0  0  0  0  0  0  0  0  0  0
   -5.4690    1.2590   16.2030 N   0  0  0  0  0  0  0  0  0  0  0  0
   -4.0330    4.1230   15.6490 C   0  0  0  0  0  0  0  0  0  0  0  0
   -3.5920    5.2570   14.9450 C   0  0  0  0  0  0  0  0  0  0  0  0
   -4.5100    6.3000   14.5830 C   0  0  0  0  0  0  0  0  0  0  0  0
   -4.2110    7.4390   13.8710 N   0  0  0  0  0  0  0  0  0  0  0  0
   -2.6730    7.7550   13.3220 S   0  0  0  0  0  0  0  0  0  0  0  0
   -1.5910    7.4730   14.3980 O   0  0  0  0  0  0  0  0  0  0  0  0
   -2.3490    6.8790   12.0960 O   0  0  0  0  0  0  0  0  0  0  0  0
   -2.5930    9.4410   13.0970 C   0  0  0  0  0  0  0  0  0  0  0  0
   -2.0700   10.2190   14.1280 C   0  0  0  0  0  0  0  0  0  0  0  0
   -2.0410   11.5870   13.9500 C   0  0  0  0  0  0  0  0  0  0  0  0
   -2.5400   12.1310   12.7790 C   0  0  0  0  0  0  0  0  0  0  0  0
   -2.4970   13.9310   12.6090 Br  0  0  0  0  0  0  0  0  0  0  0  0
   -3.0690   11.3620   11.7550 C   0  0  0  0  0  0  0  0  0  0  0  0
   -3.1010    9.9920   11.9320 C   0  0  0  0  0  0  0  0  0  0  0  0
  2  1  2  0
 10  1  1  0
  3  2  1  0
  4  3  1  0
  8  3  2  0
  5  4  2  0
  6  4  2  0
  7  4  1  0
  9  8  1  0
 10  9  2  0
 11 10  1  0
 12 11  1  0
 13 12  2  0
 14 12  2  0
 15 12  1  0
 16 15  2  0
 21 15  1  0
 17 16  1  0
 18 17  2  0
 19 18  1  0
 20 18  1  0
 21 20  2  0
A    1
CAA
A    2
CAB
A    3
CAC
A    4
SAR
A    5
OAS
A    6
OAT
A    7
NAU
A    8
CAD
A    9
CAE
A   10
CAF
A   11
NAG
A   12
SAH
A   13
OAI
A   14
OAJ
A   15
CAK
A   16
CAL
A   17
CAM
A   18
CAN
A   19
BR
A   20
CAO
A   21
CAP
M  END
>  <Id>  (270) 
5NXI_9DE_A_302

>  <ChainId>  (270) 
A

>  <AsymId>  (270) 
C

>  <SeqNum>  (270) 
302

>  <Name>  (270) 
4-[(4-bromophenyl)sulfonylamino]benzenesulfonamide

>  <SystematicName>  (270) 
4-[(4-bromophenyl)sulfonylamino]benzenesulfonamide

>  <Synonyms>  (270) 


>  <Type>  (270) 
NON-POLYMER

>  <Formula>  (270) 
C12 H11 Br N2 O4 S2

>  <ObservedFormula>  (270) 
Br C12 S2 N2 O4

>  <MolecularWeight>  (270) 
391.261

>  <ModifiedDate>  (270) 
2018-01-12

>  <Parent>  (270) 


>  <OneLetterCode>  (270) 


>  <SubcomponentList>  (270) 


>  <AmbiguousFlag>  (270) 
N

>  <InsertionCode>  (270) 


>  <InstanceId>  (270) 
5NXI_9DE_A_302

>  <ChemCompId>  (270) 
9DE

>  <PdbId>  (270) 
5NXI

>  <ResidueNumber>  (270) 
302

>  <InChI>  (270) 
InChI=1S/C12H11BrN2O4S2/c13-9-1-5-12(6-2-9)21(18,19)15-10-3-7-11(8-4-10)20(14,16)17/h1-8,15H,(H2,14,16,17)

>  <InChIKey>  (270) 
NLJFWGABSSGIJO-UHFFFAOYSA-N

>  <SMILES>  (270) 
c1cc(ccc1NS(=O)(=O)c2ccc(cc2)Br)S(=O)(=O)N

>  <MissingHeavyAtoms>  (270) 
0

>  <Model>  (270) 
1

>  <AltIds>  (270) 


>  <pKI>  (270) 
6.66

>  <ChemblID>  (270) 
-

>  <standardized_canonical_smiles>  (270) 
NS(=O)(=O)c1ccc(NS(=O)(=O)c2ccc(Br)cc2)cc1

$$$$
5LJT_A6N_A_302
     RDKit          3D

 23 25  0  0  0  0  0  0  0  0999 V2000
   -2.4840    5.7580   13.8660 C   0  0  0  0  0  0  0  0  0  0  0  0
   -3.8630    5.6570   14.2240 O   0  0  0  0  0  0  0  0  0  0  0  0
   -4.3390    4.4830   14.7490 C   0  0  0  0  0  0  0  0  0  0  0  0
   -5.6810    4.4490   15.0920 C   0  0  0  0  0  0  0  0  0  0  0  0
   -6.2140    3.3190   15.6890 C   0  0  0  0  0  0  0  0  0  0  0  0
   -5.3940    2.2290   15.9430 C   0  0  0  0  0  0  0  0  0  0  0  0
   -4.0580    2.2520   15.5790 C   0  0  0  0  0  0  0  0  0  0  0  0
   -3.5330    3.3780   14.9720 C   0  0  0  0  0  0  0  0  0  0  0  0
   -2.1310    7.1950   13.7280 C   0  0  0  0  0  0  0  0  0  0  0  0
   -2.2460    8.0230   12.6520 C   0  0  0  0  0  0  0  0  0  0  0  0
   -1.8090    9.2250   13.0800 N   0  0  0  0  0  0  0  0  0  0  0  0
   -1.4230    9.1520   14.3770 N   0  0  0  0  0  0  0  0  0  0  0  0
   -1.6230    7.9140   14.7660 N   0  0  0  0  0  0  0  0  0  0  0  0
   -1.7490   10.4640   12.3760 C   0  0  0  0  0  0  0  0  0  0  0  0
   -1.9170   11.6600   13.0630 C   0  0  0  0  0  0  0  0  0  0  0  0
   -1.9040   12.8550   12.3660 C   0  0  0  0  0  0  0  0  0  0  0  0
   -1.7260   12.8630   10.9940 C   0  0  0  0  0  0  0  0  0  0  0  0
   -1.5540   11.6710   10.3140 C   0  0  0  0  0  0  0  0  0  0  0  0
   -1.5630   10.4680   10.9990 C   0  0  0  0  0  0  0  0  0  0  0  0
   -6.0280    0.8400   16.8330 S   0  0  0  0  0  0  0  0  0  0  0  0
   -7.4500    0.8630   16.6790 O   0  0  0  0  0  0  0  0  0  0  0  0
   -5.4800    0.9090   18.1570 O   0  0  0  0  0  0  0  0  0  0  0  0
   -5.4740   -0.4890   16.1360 N   0  0  0  0  0  0  0  0  0  0  0  0
  2  1  1  0
  9  1  1  0
  3  2  1  0
  4  3  2  0
  8  3  1  0
  5  4  1  0
  6  5  2  0
  7  6  1  0
 20  6  1  0
  8  7  2  0
 10  9  2  0
 13  9  1  0
 11 10  1  0
 12 11  1  0
 14 11  1  0
 13 12  2  0
 15 14  2  0
 19 14  1  0
 16 15  1  0
 17 16  2  0
 18 17  1  0
 19 18  2  0
 21 20  1  0
 22 20  1  0
 23 20  1  0
A    1
C1
A    2
O2
A    3
C4
A    4
C5
A    5
C6
A    6
C7
A    7
C8
A    8
C9
A    9
C16
A   10
C17
A   11
N18
A   12
N19
A   13
N20
A   14
C21
A   15
C22
A   16
C23
A   17
C24
A   18
C25
A   19
C26
A   20
S1
A   21
O3
A   22
O4
A   23
N5
M  END
>  <Id>  (271) 
5LJT_A6N_A_302

>  <ChainId>  (271) 
A

>  <AsymId>  (271) 
C

>  <SeqNum>  (271) 
302

>  <Name>  (271) 
4-[[4-[azanyl-bis(oxidanyl)-$l^{4}-sulfanyl]phenoxy]methyl]-1-phenyl-1,2,3-triazole

>  <SystematicName>  (271) 
4-[[4-[azanyl-bis(oxidanyl)-$l^{4}-sulfanyl]phenoxy]methyl]-1-phenyl-1,2,3-triazole

>  <Synonyms>  (271) 


>  <Type>  (271) 
NON-POLYMER

>  <Formula>  (271) 
C15 H16 N4 O3 S

>  <ObservedFormula>  (271) 
C15 S N4 O3

>  <MolecularWeight>  (271) 
332.378

>  <ModifiedDate>  (271) 
2017-06-16

>  <Parent>  (271) 


>  <OneLetterCode>  (271) 


>  <SubcomponentList>  (271) 


>  <AmbiguousFlag>  (271) 
N

>  <InsertionCode>  (271) 


>  <InstanceId>  (271) 
5LJT_A6N_A_302

>  <ChemCompId>  (271) 
A6N

>  <PdbId>  (271) 
5LJT

>  <ResidueNumber>  (271) 
302

>  <InChI>  (271) 
InChI=1S/C15H16N4O3S/c16-23(20,21)15-8-6-14(7-9-15)22-11-12-10-19(18-17-12)13-4-2-1-3-5-13/h1-10,20-21H,11,16H2

>  <InChIKey>  (271) 
CAKKFQLFMKZHOH-UHFFFAOYSA-N

>  <SMILES>  (271) 
c1ccc(cc1)n2cc(nn2)COc3ccc(cc3)S(N)(O)O

>  <MissingHeavyAtoms>  (271) 
0

>  <Model>  (271) 
1

>  <AltIds>  (271) 


>  <pKI>  (271) 
8.92

>  <ChemblID>  (271) 
-

>  <standardized_canonical_smiles>  (271) 
NS(O)(O)c1ccc(OCc2cn(-c3ccccc3)nn2)cc1

$$$$
5MJN_7O8_A_302
     RDKit          3D

 18 19  0  0  0  0  0  0  0  0999 V2000
   -1.2990   11.4440   13.9460 Cl  0  0  0  0  0  0  0  0  0  0  0  0
   -1.8430    9.7980   13.5210 C   0  0  0  0  0  0  0  0  0  0  0  0
   -2.4250    9.2970   12.3150 C   0  0  0  0  0  0  0  0  0  0  0  0
   -2.7900    7.9110   12.3330 C   0  0  0  0  0  0  0  0  0  0  0  0
   -1.5780    9.0900   14.6920 C   0  0  0  0  0  0  0  0  0  0  0  0
   -2.0100    7.8140   14.7180 C   0  0  0  0  0  0  0  0  0  0  0  0
   -2.4120    7.1680   13.5890 C   0  0  0  0  0  0  0  0  0  0  0  0
   -2.9470    5.7880   13.6210 C   0  0  0  0  0  0  0  0  0  0  0  0
   -4.8300    5.6810   13.7200 S   0  0  0  0  0  0  0  0  0  0  0  0
   -4.8130    4.2420   14.6770 C   0  0  0  0  0  0  0  0  0  0  0  0
   -3.7110    3.4140   14.7600 C   0  0  0  0  0  0  0  0  0  0  0  0
   -3.8830    2.3210   15.5810 C   0  0  0  0  0  0  0  0  0  0  0  0
   -6.1530    3.5350   15.4390 S   0  0  0  0  0  0  0  0  0  0  0  0
   -5.3500    2.1760   15.8120 C   0  0  0  0  0  0  0  0  0  0  0  0
   -6.0660    0.9290   16.8580 S   0  0  0  0  0  0  0  0  0  0  0  0
   -5.4650    1.0860   18.1170 O   0  0  0  0  0  0  0  0  0  0  0  0
   -7.4470    1.0810   16.7120 O   0  0  0  0  0  0  0  0  0  0  0  0
   -5.6570   -0.4980   16.1470 N   0  0  0  0  0  0  0  0  0  0  0  0
  2  1  1  0
  3  2  2  0
  5  2  1  0
  4  3  1  0
  7  4  2  0
  6  5  2  0
  7  6  1  0
  8  7  1  0
  9  8  1  0
 10  9  1  0
 11 10  2  0
 13 10  1  0
 12 11  1  0
 14 12  2  0
 14 13  1  0
 15 14  1  0
 16 15  2  0
 17 15  2  0
 18 15  1  0
A    1
CL
A    2
C17
A    3
C16
A    4
C15
A    5
C18
A    6
C19
A    7
C14
A    8
C13
A    9
S12
A   10
C10
A   11
C9
A   12
C8
A   13
S11
A   14
C7
A   15
S1
A   16
O2
A   17
O3
A   18
N4
M  END
>  <Id>  (272) 
5MJN_7O8_A_302

>  <ChainId>  (272) 
A

>  <AsymId>  (272) 
C

>  <SeqNum>  (272) 
302

>  <Name>  (272) 
5-[(4-chlorophenyl)methylsulfanyl]thiophene-2-sulfonamide

>  <SystematicName>  (272) 
5-[(4-chlorophenyl)methylsulfanyl]thiophene-2-sulfonamide

>  <Synonyms>  (272) 


>  <Type>  (272) 
NON-POLYMER

>  <Formula>  (272) 
C11 H10 Cl N O2 S3

>  <ObservedFormula>  (272) 
C11 S3 Cl N O2

>  <MolecularWeight>  (272) 
319.851

>  <ModifiedDate>  (272) 
2017-12-01

>  <Parent>  (272) 


>  <OneLetterCode>  (272) 


>  <SubcomponentList>  (272) 


>  <AmbiguousFlag>  (272) 
N

>  <InsertionCode>  (272) 


>  <InstanceId>  (272) 
5MJN_7O8_A_302

>  <ChemCompId>  (272) 
7O8

>  <PdbId>  (272) 
5MJN

>  <ResidueNumber>  (272) 
302

>  <InChI>  (272) 
InChI=1S/C11H10ClNO2S3/c12-9-3-1-8(2-4-9)7-16-10-5-6-11(17-10)18(13,14)15/h1-6H,7H2,(H2,13,14,15)

>  <InChIKey>  (272) 
YITSBZGLCZKZEB-UHFFFAOYSA-N

>  <SMILES>  (272) 
c1cc(ccc1CSc2ccc(s2)S(=O)(=O)N)Cl

>  <MissingHeavyAtoms>  (272) 
0

>  <Model>  (272) 
1

>  <AltIds>  (272) 


>  <pKI>  (272) 
8.54

>  <ChemblID>  (272) 
-

>  <standardized_canonical_smiles>  (272) 
NS(=O)(=O)c1ccc(SCc2ccc(Cl)cc2)s1

$$$$
6GOT_F6W_A_304
     RDKit          3D

 19 20  0  0  0  0  0  0  0  0999 V2000
   -4.1330    2.2960   15.5240 C   0  0  0  0  0  0  0  0  0  0  0  0
   -3.7060    3.4140   14.7930 C   0  0  0  0  0  0  0  0  0  0  0  0
   -6.3110    3.2380   15.6620 C   0  0  0  0  0  0  0  0  0  0  0  0
   -5.9020    4.3690   14.9420 C   0  0  0  0  0  0  0  0  0  0  0  0
   -4.5900    4.4550   14.5090 C   0  0  0  0  0  0  0  0  0  0  0  0
   -2.2850    5.6870   13.5170 C   0  0  0  0  0  0  0  0  0  0  0  0
   -1.4850   10.6060   13.2360 C   0  0  0  0  0  0  0  0  0  0  0  0
   -7.3640    0.8210   16.7420 O   0  0  0  0  0  0  0  0  0  0  0  0
   -5.9450    0.8530   16.7900 S   0  0  0  0  0  0  0  0  0  0  0  0
   -5.4660    0.9050   18.1350 O   0  0  0  0  0  0  0  0  0  0  0  0
   -5.4040   -0.5290   16.0920 N   0  0  0  0  0  0  0  0  0  0  0  0
   -5.4420    2.1790   15.9900 C   0  0  0  0  0  0  0  0  0  0  0  0
   -4.0290    5.7640   13.5980 S   0  0  0  0  0  0  0  0  0  0  0  0
   -1.7240    6.5880   14.6060 C   0  0  0  0  0  0  0  0  0  0  0  0
   -1.6320    7.9920   14.1050 C   0  0  0  0  0  0  0  0  0  0  0  0
   -1.9900    8.2800   12.7930 C   0  0  0  0  0  0  0  0  0  0  0  0
   -1.9200    9.6030   12.3750 C   0  0  0  0  0  0  0  0  0  0  0  0
   -1.1290   10.3010   14.5410 C   0  0  0  0  0  0  0  0  0  0  0  0
   -1.2000    8.9890   14.9780 C   0  0  0  0  0  0  0  0  0  0  0  0
  2  1  2  0
 12  1  1  0
  5  2  1  0
  4  3  1  0
 12  3  2  0
  5  4  2  0
 13  5  1  0
 13  6  1  0
 14  6  1  0
 17  7  2  0
 18  7  1  0
  9  8  2  0
 10  9  2  0
 11  9  1  0
 12  9  1  0
 15 14  1  0
 16 15  2  0
 19 15  1  0
 17 16  1  0
 19 18  2  0
A    1
C1
A    2
C2
A    3
C3
A    4
C4
A    5
C5
A    6
C6
A    7
C11
A    8
O1
A    9
S
A   10
O
A   11
N
A   12
C
A   13
S1
A   14
C7
A   15
C8
A   16
C13
A   17
C12
A   18
C10
A   19
C9
M  END
>  <Id>  (273) 
6GOT_F6W_A_304

>  <ChainId>  (273) 
A

>  <AsymId>  (273) 
E

>  <SeqNum>  (273) 
304

>  <Name>  (273) 
4-(2-phenylethylsulfanyl)benzenesulfonamide

>  <SystematicName>  (273) 
4-(2-phenylethylsulfanyl)benzenesulfonamide

>  <Synonyms>  (273) 


>  <Type>  (273) 
NON-POLYMER

>  <Formula>  (273) 
C14 H15 N O2 S2

>  <ObservedFormula>  (273) 
C14 S2 N O2

>  <MolecularWeight>  (273) 
293.404

>  <ModifiedDate>  (273) 
2018-09-28

>  <Parent>  (273) 


>  <OneLetterCode>  (273) 


>  <SubcomponentList>  (273) 


>  <AmbiguousFlag>  (273) 
N

>  <InsertionCode>  (273) 


>  <InstanceId>  (273) 
6GOT_F6W_A_304

>  <ChemCompId>  (273) 
F6W

>  <PdbId>  (273) 
6GOT

>  <ResidueNumber>  (273) 
304

>  <InChI>  (273) 
InChI=1S/C14H15NO2S2/c15-19(16,17)14-8-6-13(7-9-14)18-11-10-12-4-2-1-3-5-12/h1-9H,10-11H2,(H2,15,16,17)

>  <InChIKey>  (273) 
BIDLYFNXVUUEMA-UHFFFAOYSA-N

>  <SMILES>  (273) 
c1ccc(cc1)CCSc2ccc(cc2)S(=O)(=O)N

>  <MissingHeavyAtoms>  (273) 
0

>  <Model>  (273) 
1

>  <AltIds>  (273) 


>  <pKI>  (273) 
9.4

>  <ChemblID>  (273) 
-

>  <standardized_canonical_smiles>  (273) 
NS(=O)(=O)c1ccc(SCCc2ccccc2)cc1

$$$$
6D1M_FQY_A_303
     RDKit          3D

 17 18  0  0  0  0  0  0  0  0999 V2000
   15.8180   -1.7320   82.6340 C   0  0  0  0  0  0  0  0  0  0  0  0
   15.9560    0.5650   81.9870 C   0  0  0  0  0  0  0  0  0  0  0  0
   16.6520   -2.0680   81.5870 C   0  0  0  0  0  0  0  0  0  0  0  0
   16.7990    0.2090   80.9520 C   0  0  0  0  0  0  0  0  0  0  0  0
   15.4730   -0.4160   82.8240 C   0  0  0  0  0  0  0  0  0  0  0  0
   17.1330   -1.1040   80.7330 C   0  0  0  0  0  0  0  0  0  0  0  0
   16.9490   -5.3680   76.9000 C   0  0  0  0  0  0  0  0  0  0  0  0
   15.9580   -4.8260   77.9170 C   0  0  0  0  0  0  0  0  0  0  0  0
   18.3840   -5.2820   77.3670 C   0  0  0  0  0  0  0  0  0  0  0  0
   16.3290   -3.4030   78.2940 C   0  0  0  0  0  0  0  0  0  0  0  0
   18.7390   -3.8690   77.7550 C   0  0  0  0  0  0  0  0  0  0  0  0
   17.7580   -3.3040   78.7750 C   0  0  0  0  0  0  0  0  0  0  0  0
   15.2980    0.2450   85.5090 N   0  0  0  0  0  0  0  0  0  0  0  0
   13.7300    1.2480   83.7960 O   0  0  0  0  0  0  0  0  0  0  0  0
   13.5480   -1.1590   84.3800 O   0  0  0  0  0  0  0  0  0  0  0  0
   14.3640    0.0000   84.1430 S   0  0  0  0  0  0  0  0  0  0  0  0
   18.3260   -1.5030   79.2340 Se  0  0  0  0  0  2  0  0  0  0  0  0
  3  1  2  0
  5  1  1  0
  4  2  1  0
  5  2  2  0
  6  3  1  0
  6  4  2  0
 16  5  1  0
 17  6  1  0
  8  7  1  0
  9  7  1  0
 10  8  1  0
 11  9  1  0
 12 10  1  0
 12 11  1  0
 17 12  1  0
 16 13  1  0
 16 14  2  0
 16 15  2  0
A    1
C4
A    2
C6
A    3
C5
A    4
C7
A    5
C3
A    6
C8
A    7
C13
A    8
C12
A    9
C14
A   10
C11
A   11
C15
A   12
C10
A   13
N16
A   14
O1
A   15
O17
A   16
S2
A   17
SE9
M  END
>  <Id>  (274) 
6D1M_FQY_A_303

>  <ChainId>  (274) 
A

>  <AsymId>  (274) 
D

>  <SeqNum>  (274) 
303

>  <Name>  (274) 
4-(cyclohexylselanyl)benzene-1-sulfonamide

>  <SystematicName>  (274) 
4-cyclohexylselanylbenzenesulfonamide

>  <Synonyms>  (274) 


>  <Type>  (274) 
NON-POLYMER

>  <Formula>  (274) 
C12 H17 N O2 S Se

>  <ObservedFormula>  (274) 
Se C12 S N O2

>  <MolecularWeight>  (274) 
318.294

>  <ModifiedDate>  (274) 
2018-06-08

>  <Parent>  (274) 


>  <OneLetterCode>  (274) 


>  <SubcomponentList>  (274) 


>  <AmbiguousFlag>  (274) 
N

>  <InsertionCode>  (274) 


>  <InstanceId>  (274) 
6D1M_FQY_A_303

>  <ChemCompId>  (274) 
FQY

>  <PdbId>  (274) 
6D1M

>  <ResidueNumber>  (274) 
303

>  <InChI>  (274) 
InChI=1S/C12H17NO2SSe/c13-16(14,15)10-6-8-12(9-7-10)17-11-4-2-1-3-5-11/h6-9,11H,1-5H2,(H2,13,14,15)

>  <InChIKey>  (274) 
IGTNDRSNATZZDO-UHFFFAOYSA-N

>  <SMILES>  (274) 
c1cc(ccc1S(=O)(=O)N)[Se]C2CCCCC2

>  <MissingHeavyAtoms>  (274) 
0

>  <Model>  (274) 
1

>  <AltIds>  (274) 


>  <pKI>  (274) 
8.2

>  <ChemblID>  (274) 
-

>  <standardized_canonical_smiles>  (274) 
NS(=O)(=O)c1ccc([Se]C2CCCCC2)cc1

$$$$
6EEA_J3V_A_303
     RDKit          3D

 28 29  0  0  0  0  0  0  0  0999 V2000
    1.9080   10.5860   15.0720 C   0  0  0  0  0  0  0  0  0  0  0  0
    3.5910    9.7290   13.5460 C   0  0  0  0  0  0  0  0  0  0  0  0
    2.1580   11.5630   12.9100 C   0  0  0  0  0  0  0  0  0  0  0  0
   -3.1740    7.6240   14.1120 C   0  0  0  0  0  0  0  0  0  0  0  0
   -1.9080    8.0900   13.8620 C   0  0  0  0  0  0  0  0  0  0  0  0
   -1.6700    9.4340   14.0040 C   0  0  0  0  0  0  0  0  0  0  0  0
   -2.6350   10.3370   14.3620 C   0  0  0  0  0  0  0  0  0  0  0  0
   -3.9330    9.8490   14.5980 C   0  0  0  0  0  0  0  0  0  0  0  0
   -4.1910    8.4770   14.4610 C   0  0  0  0  0  0  0  0  0  0  0  0
   -0.4090    9.8870   13.7570 O   0  0  0  0  0  0  0  0  0  0  0  0
   -2.2860   11.7600   14.5040 N   0  0  0  0  0  0  0  0  0  0  0  0
   -1.0610   12.6150   14.5170 C   0  0  0  0  0  0  0  0  0  0  0  0
    0.4150   12.4970   14.3780 N   0  0  0  0  0  0  0  0  0  0  0  0
   -1.3300   13.7480   14.6940 O   0  0  0  0  0  0  0  0  0  0  0  0
    1.4940   11.5240   14.1320 C   0  0  0  0  0  0  0  0  0  0  0  0
    2.9390    9.7000   14.7680 C   0  0  0  0  0  0  0  0  0  0  0  0
    3.1920   10.6780   12.6130 C   0  0  0  0  0  0  0  0  0  0  0  0
   -5.7880    7.6310   14.7010 S   0  0  0  0  0  0  0  0  0  0  0  0
   -6.6550    8.2640   15.6980 O   0  0  0  0  0  0  0  0  0  0  0  0
   -5.5760    6.2930   15.2680 O   0  0  0  0  0  0  0  0  0  0  0  0
   -6.5780    7.4760   13.1960 N   0  0  0  0  0  0  0  0  0  0  0  0
   -0.8410    7.1780   13.4600 N   0  0  0  0  0  0  0  0  0  0  0  0
   -1.0930    6.0560   13.2270 O   0  0  0  0  0  0  0  0  0  0  0  0
    0.4900    7.6040   13.3100 O   0  0  0  0  0  0  0  0  0  0  0  0
    4.7330    8.7420   13.2390 C   0  0  0  0  0  0  0  0  0  0  0  0
    5.7960    9.0090   14.0540 F   0  0  0  0  0  0  0  0  0  0  0  0
    4.3400    7.4500   13.4530 F   0  0  0  0  0  0  0  0  0  0  0  0
    5.1180    8.8640   11.9330 F   0  0  0  0  0  0  0  0  0  0  0  0
 15  1  2  0
 16  1  1  0
 16  2  2  0
 17  2  1  0
 25  2  1  0
 15  3  1  0
 17  3  2  0
  5  4  2  0
  9  4  1  0
  6  5  1  0
 22  5  1  0
  7  6  2  0
 10  6  1  0
  8  7  1  0
 11  7  1  0
  9  8  2  0
 18  9  1  0
 12 11  1  0
 13 12  1  0
 14 12  2  0
 15 13  1  0
 19 18  2  0
 20 18  2  0
 21 18  1  0
 23 22  1  0
 24 22  2  0
 26 25  1  0
 27 25  1  0
 28 25  1  0
M  CHG  2  22   1  23  -1
A    1
C13
A    2
C15
A    3
C17
A    4
C01
A    5
C02
A    6
C03
A    7
C04
A    8
C05
A    9
C06
A   10
O07
A   11
N08
A   12
C09
A   13
N10
A   14
O11
A   15
C12
A   16
C14
A   17
C16
A   18
S18
A   19
O19
A   20
O20
A   21
N21
A   22
N22
A   23
O23
A   24
O24
A   25
C25
A   26
F26
A   27
F27
A   28
F28
M  END
>  <Id>  (275) 
6EEA_J3V_A_303

>  <ChainId>  (275) 
A

>  <AsymId>  (275) 
D

>  <SeqNum>  (275) 
303

>  <Name>  (275) 
4-hydroxy-3-nitro-5-({[4-(trifluoromethyl)phenyl]carbamoyl}amino)benzene-1-sulfonamide

>  <SystematicName>  (275) 
1-(3-nitro-2-oxidanyl-5-sulfamoyl-phenyl)-3-[4-(trifluoromethyl)phenyl]urea

>  <Synonyms>  (275) 


>  <Type>  (275) 
NON-POLYMER

>  <Formula>  (275) 
C14 H11 F3 N4 O6 S

>  <ObservedFormula>  (275) 
C14 S F3 N4 O6

>  <MolecularWeight>  (275) 
420.321

>  <ModifiedDate>  (275) 
2018-11-23

>  <Parent>  (275) 


>  <OneLetterCode>  (275) 


>  <SubcomponentList>  (275) 


>  <AmbiguousFlag>  (275) 
N

>  <InsertionCode>  (275) 


>  <InstanceId>  (275) 
6EEA_J3V_A_303

>  <ChemCompId>  (275) 
J3V

>  <PdbId>  (275) 
6EEA

>  <ResidueNumber>  (275) 
303

>  <InChI>  (275) 
InChI=1S/C14H11F3N4O6S/c15-14(16,17)7-1-3-8(4-2-7)19-13(23)20-10-5-9(28(18,26)27)6-11(12(10)22)21(24)25/h1-6,22H,(H2,18,26,27)(H2,19,20,23)

>  <InChIKey>  (275) 
QAQNAMKVJZAGRL-UHFFFAOYSA-N

>  <SMILES>  (275) 
c1cc(ccc1C(F)(F)F)NC(=O)Nc2cc(cc(c2O)N(=O)=O)S(=O)(=O)N

>  <MissingHeavyAtoms>  (275) 
0

>  <Model>  (275) 
1

>  <AltIds>  (275) 


>  <pKI>  (275) 
6.69

>  <ChemblID>  (275) 
-

>  <standardized_canonical_smiles>  (275) 
NS(=O)(=O)c1cc(NC(=O)Nc2ccc(C(F)(F)F)cc2)c(O)c([N+](=O)[O-])c1

$$$$
6EDA_J3V_A_302
     RDKit          3D

 28 29  0  0  0  0  0  0  0  0999 V2000
   -2.2860    8.9400   12.4050 C   0  0  0  0  0  0  0  0  0  0  0  0
   -1.0410   10.0230   14.1410 C   0  0  0  0  0  0  0  0  0  0  0  0
   -2.2500    7.9970   14.6260 C   0  0  0  0  0  0  0  0  0  0  0  0
   -4.9870    0.6770   13.6690 C   0  0  0  0  0  0  0  0  0  0  0  0
   -4.7330    1.0710   12.3700 C   0  0  0  0  0  0  0  0  0  0  0  0
   -4.6180    2.4160   12.0810 C   0  0  0  0  0  0  0  0  0  0  0  0
   -4.7670    3.3420   13.1000 C   0  0  0  0  0  0  0  0  0  0  0  0
   -5.0290    2.9640   14.4130 C   0  0  0  0  0  0  0  0  0  0  0  0
   -5.1430    1.6090   14.6820 C   0  0  0  0  0  0  0  0  0  0  0  0
   -4.3540    2.8580   10.7740 O   0  0  0  0  0  0  0  0  0  0  0  0
   -4.6130    4.7180   12.6980 N   0  0  0  0  0  0  0  0  0  0  0  0
   -3.6340    5.5590   13.3400 C   0  0  0  0  0  0  0  0  0  0  0  0
   -3.5470    6.9060   12.8190 N   0  0  0  0  0  0  0  0  0  0  0  0
   -2.9660    5.1490   14.2320 O   0  0  0  0  0  0  0  0  0  0  0  0
   -2.6690    7.9520   13.3030 C   0  0  0  0  0  0  0  0  0  0  0  0
   -1.4680    9.9720   12.8220 C   0  0  0  0  0  0  0  0  0  0  0  0
   -1.4270    9.0360   15.0430 C   0  0  0  0  0  0  0  0  0  0  0  0
   -5.4940    0.9490   16.3370 S   0  0  0  0  0  0  0  0  0  0  0  0
   -6.8800    1.1850   16.7390 O   0  0  0  0  0  0  0  0  0  0  0  0
   -4.6760    1.5540   17.3870 O   0  0  0  0  0  0  0  0  0  0  0  0
   -5.2400   -0.7270   16.2590 N   0  0  0  0  0  0  0  0  0  0  0  0
   -4.5930    0.0720   11.3360 N   0  0  0  0  0  0  0  0  0  0  0  0
   -4.2150   -1.0110   11.6160 O   0  0  0  0  0  0  0  0  0  0  0  0
   -4.9300    0.4010   10.0170 O   0  0  0  0  0  0  0  0  0  0  0  0
   -0.1250   11.1700   14.5660 C   0  0  0  0  0  0  0  0  0  0  0  0
    1.1480   10.6970   14.7200 F   0  0  0  0  0  0  0  0  0  0  0  0
   -0.1450   12.1180   13.5830 F   0  0  0  0  0  0  0  0  0  0  0  0
   -0.5550   11.7310   15.7310 F   0  0  0  0  0  0  0  0  0  0  0  0
 15  1  2  0
 16  1  1  0
 16  2  2  0
 17  2  1  0
 25  2  1  0
 15  3  1  0
 17  3  2  0
  5  4  2  0
  9  4  1  0
  6  5  1  0
 22  5  1  0
  7  6  2  0
 10  6  1  0
  8  7  1  0
 11  7  1  0
  9  8  2  0
 18  9  1  0
 12 11  1  0
 13 12  1  0
 14 12  2  0
 15 13  1  0
 19 18  2  0
 20 18  2  0
 21 18  1  0
 23 22  1  0
 24 22  2  0
 26 25  1  0
 27 25  1  0
 28 25  1  0
M  CHG  2  22   1  23  -1
A    1
C13
A    2
C15
A    3
C17
A    4
C01
A    5
C02
A    6
C03
A    7
C04
A    8
C05
A    9
C06
A   10
O07
A   11
N08
A   12
C09
A   13
N10
A   14
O11
A   15
C12
A   16
C14
A   17
C16
A   18
S18
A   19
O19
A   20
O20
A   21
N21
A   22
N22
A   23
O23
A   24
O24
A   25
C25
A   26
F26
A   27
F27
A   28
F28
M  END
>  <Id>  (276) 
6EDA_J3V_A_302

>  <ChainId>  (276) 
A

>  <AsymId>  (276) 
C

>  <SeqNum>  (276) 
302

>  <Name>  (276) 
4-hydroxy-3-nitro-5-({[4-(trifluoromethyl)phenyl]carbamoyl}amino)benzene-1-sulfonamide

>  <SystematicName>  (276) 
1-(3-nitro-2-oxidanyl-5-sulfamoyl-phenyl)-3-[4-(trifluoromethyl)phenyl]urea

>  <Synonyms>  (276) 


>  <Type>  (276) 
NON-POLYMER

>  <Formula>  (276) 
C14 H11 F3 N4 O6 S

>  <ObservedFormula>  (276) 
C14 S F3 N4 O6

>  <MolecularWeight>  (276) 
420.321

>  <ModifiedDate>  (276) 
2018-11-23

>  <Parent>  (276) 


>  <OneLetterCode>  (276) 


>  <SubcomponentList>  (276) 


>  <AmbiguousFlag>  (276) 
N

>  <InsertionCode>  (276) 


>  <InstanceId>  (276) 
6EDA_J3V_A_302

>  <ChemCompId>  (276) 
J3V

>  <PdbId>  (276) 
6EDA

>  <ResidueNumber>  (276) 
302

>  <InChI>  (276) 
InChI=1S/C14H11F3N4O6S/c15-14(16,17)7-1-3-8(4-2-7)19-13(23)20-10-5-9(28(18,26)27)6-11(12(10)22)21(24)25/h1-6,22H,(H2,18,26,27)(H2,19,20,23)

>  <InChIKey>  (276) 
QAQNAMKVJZAGRL-UHFFFAOYSA-N

>  <SMILES>  (276) 
c1cc(ccc1C(F)(F)F)NC(=O)Nc2cc(cc(c2O)N(=O)=O)S(=O)(=O)N

>  <MissingHeavyAtoms>  (276) 
0

>  <Model>  (276) 
1

>  <AltIds>  (276) 


>  <pKI>  (276) 
6.69

>  <ChemblID>  (276) 
-

>  <standardized_canonical_smiles>  (276) 
NS(=O)(=O)c1cc(NC(=O)Nc2ccc(C(F)(F)F)cc2)c(O)c([N+](=O)[O-])c1

$$$$
6EBE_J3V_A_302
     RDKit          3D

 28 29  0  0  0  0  0  0  0  0999 V2000
   -2.2860    8.9400   12.4050 C   0  0  0  0  0  0  0  0  0  0  0  0
   -1.0410   10.0230   14.1410 C   0  0  0  0  0  0  0  0  0  0  0  0
   -2.2500    7.9970   14.6260 C   0  0  0  0  0  0  0  0  0  0  0  0
   -4.9870    0.6770   13.6690 C   0  0  0  0  0  0  0  0  0  0  0  0
   -4.7330    1.0710   12.3700 C   0  0  0  0  0  0  0  0  0  0  0  0
   -4.6180    2.4160   12.0810 C   0  0  0  0  0  0  0  0  0  0  0  0
   -4.7670    3.3420   13.1000 C   0  0  0  0  0  0  0  0  0  0  0  0
   -5.0290    2.9640   14.4130 C   0  0  0  0  0  0  0  0  0  0  0  0
   -5.1430    1.6090   14.6820 C   0  0  0  0  0  0  0  0  0  0  0  0
   -4.3540    2.8580   10.7740 O   0  0  0  0  0  0  0  0  0  0  0  0
   -4.6130    4.7180   12.6980 N   0  0  0  0  0  0  0  0  0  0  0  0
   -3.6340    5.5590   13.3400 C   0  0  0  0  0  0  0  0  0  0  0  0
   -3.5470    6.9060   12.8190 N   0  0  0  0  0  0  0  0  0  0  0  0
   -2.9660    5.1490   14.2320 O   0  0  0  0  0  0  0  0  0  0  0  0
   -2.6690    7.9520   13.3030 C   0  0  0  0  0  0  0  0  0  0  0  0
   -1.4680    9.9720   12.8220 C   0  0  0  0  0  0  0  0  0  0  0  0
   -1.4270    9.0360   15.0430 C   0  0  0  0  0  0  0  0  0  0  0  0
   -5.4940    0.9490   16.3370 S   0  0  0  0  0  0  0  0  0  0  0  0
   -6.8800    1.1850   16.7390 O   0  0  0  0  0  0  0  0  0  0  0  0
   -4.6760    1.5540   17.3870 O   0  0  0  0  0  0  0  0  0  0  0  0
   -5.2400   -0.7270   16.2590 N   0  0  0  0  0  0  0  0  0  0  0  0
   -4.5930    0.0720   11.3360 N   0  0  0  0  0  0  0  0  0  0  0  0
   -4.2150   -1.0110   11.6160 O   0  0  0  0  0  0  0  0  0  0  0  0
   -4.9300    0.4010   10.0170 O   0  0  0  0  0  0  0  0  0  0  0  0
   -0.1250   11.1700   14.5660 C   0  0  0  0  0  0  0  0  0  0  0  0
    1.1480   10.6970   14.7200 F   0  0  0  0  0  0  0  0  0  0  0  0
   -0.1450   12.1180   13.5830 F   0  0  0  0  0  0  0  0  0  0  0  0
   -0.5550   11.7310   15.7310 F   0  0  0  0  0  0  0  0  0  0  0  0
 15  1  2  0
 16  1  1  0
 16  2  2  0
 17  2  1  0
 25  2  1  0
 15  3  1  0
 17  3  2  0
  5  4  2  0
  9  4  1  0
  6  5  1  0
 22  5  1  0
  7  6  2  0
 10  6  1  0
  8  7  1  0
 11  7  1  0
  9  8  2  0
 18  9  1  0
 12 11  1  0
 13 12  1  0
 14 12  2  0
 15 13  1  0
 19 18  2  0
 20 18  2  0
 21 18  1  0
 23 22  1  0
 24 22  2  0
 26 25  1  0
 27 25  1  0
 28 25  1  0
M  CHG  2  22   1  23  -1
A    1
C13
A    2
C15
A    3
C17
A    4
C01
A    5
C02
A    6
C03
A    7
C04
A    8
C05
A    9
C06
A   10
O07
A   11
N08
A   12
C09
A   13
N10
A   14
O11
A   15
C12
A   16
C14
A   17
C16
A   18
S18
A   19
O19
A   20
O20
A   21
N21
A   22
N22
A   23
O23
A   24
O24
A   25
C25
A   26
F26
A   27
F27
A   28
F28
M  END
>  <Id>  (277) 
6EBE_J3V_A_302

>  <ChainId>  (277) 
A

>  <AsymId>  (277) 
C

>  <SeqNum>  (277) 
302

>  <Name>  (277) 
4-hydroxy-3-nitro-5-({[4-(trifluoromethyl)phenyl]carbamoyl}amino)benzene-1-sulfonamide

>  <SystematicName>  (277) 
1-(3-nitro-2-oxidanyl-5-sulfamoyl-phenyl)-3-[4-(trifluoromethyl)phenyl]urea

>  <Synonyms>  (277) 


>  <Type>  (277) 
NON-POLYMER

>  <Formula>  (277) 
C14 H11 F3 N4 O6 S

>  <ObservedFormula>  (277) 
C14 S F3 N4 O6

>  <MolecularWeight>  (277) 
420.321

>  <ModifiedDate>  (277) 
2018-11-23

>  <Parent>  (277) 


>  <OneLetterCode>  (277) 


>  <SubcomponentList>  (277) 


>  <AmbiguousFlag>  (277) 
N

>  <InsertionCode>  (277) 


>  <InstanceId>  (277) 
6EBE_J3V_A_302

>  <ChemCompId>  (277) 
J3V

>  <PdbId>  (277) 
6EBE

>  <ResidueNumber>  (277) 
302

>  <InChI>  (277) 
InChI=1S/C14H11F3N4O6S/c15-14(16,17)7-1-3-8(4-2-7)19-13(23)20-10-5-9(28(18,26)27)6-11(12(10)22)21(24)25/h1-6,22H,(H2,18,26,27)(H2,19,20,23)

>  <InChIKey>  (277) 
QAQNAMKVJZAGRL-UHFFFAOYSA-N

>  <SMILES>  (277) 
c1cc(ccc1C(F)(F)F)NC(=O)Nc2cc(cc(c2O)N(=O)=O)S(=O)(=O)N

>  <MissingHeavyAtoms>  (277) 
0

>  <Model>  (277) 
1

>  <AltIds>  (277) 


>  <pKI>  (277) 
6.69

>  <ChemblID>  (277) 
-

>  <standardized_canonical_smiles>  (277) 
NS(=O)(=O)c1cc(NC(=O)Nc2ccc(C(F)(F)F)cc2)c(O)c([N+](=O)[O-])c1

$$$$
6ECZ_J4D_A_302
     RDKit          3D

 29 30  0  0  0  0  0  0  0  0999 V2000
   -0.9510    8.6300   13.6930 C   0  0  0  0  0  0  0  0  0  0  0  0
    1.1530    8.1840   12.5490 C   0  0  0  0  0  0  0  0  0  0  0  0
   -0.7810    6.7980   12.1400 C   0  0  0  0  0  0  0  0  0  0  0  0
   -4.9860    1.1610   13.8650 C   0  0  0  0  0  0  0  0  0  0  0  0
   -4.7250    1.7520   12.6450 C   0  0  0  0  0  0  0  0  0  0  0  0
   -4.6500    3.1380   12.5850 C   0  0  0  0  0  0  0  0  0  0  0  0
   -4.8460    3.9170   13.7360 C   0  0  0  0  0  0  0  0  0  0  0  0
   -5.1140    3.3090   14.9550 C   0  0  0  0  0  0  0  0  0  0  0  0
   -5.1830    1.9230   15.0030 C   0  0  0  0  0  0  0  0  0  0  0  0
   -4.3750    3.7430   11.3550 O   0  0  0  0  0  0  0  0  0  0  0  0
   -4.7350    5.3620   13.6280 N   0  0  0  0  0  0  0  0  0  0  0  0
   -3.3590    5.8010   13.4270 C   0  0  0  0  0  0  0  0  0  0  0  0
   -2.9520    7.1970   13.2720 N   0  0  0  0  0  0  0  0  0  0  0  0
   -2.5270    4.9530   13.3870 O   0  0  0  0  0  0  0  0  0  0  0  0
   -1.5460    7.5470   13.0470 C   0  0  0  0  0  0  0  0  0  0  0  0
    0.3900    8.9480   13.4490 C   0  0  0  0  0  0  0  0  0  0  0  0
    0.5580    7.1010   11.8950 C   0  0  0  0  0  0  0  0  0  0  0  0
   -1.3250    5.7270   11.4810 F   0  0  0  0  0  0  0  0  0  0  0  0
    1.2720    6.3280   11.0070 F   0  0  0  0  0  0  0  0  0  0  0  0
    2.4760    8.4890   12.3080 F   0  0  0  0  0  0  0  0  0  0  0  0
    0.9540   10.0170   14.1030 F   0  0  0  0  0  0  0  0  0  0  0  0
   -1.6700    9.3860   14.5740 F   0  0  0  0  0  0  0  0  0  0  0  0
   -4.5470    0.8810   11.4760 N   0  0  0  0  0  0  0  0  0  0  0  0
   -4.8720    1.2330   10.3960 O   0  0  0  0  0  0  0  0  0  0  0  0
   -4.0170   -0.4130   11.6500 O   0  0  0  0  0  0  0  0  0  0  0  0
   -5.5450    1.0110   16.5240 S   0  0  0  0  0  0  0  0  0  0  0  0
   -6.9170    1.2620   16.9390 O   0  0  0  0  0  0  0  0  0  0  0  0
   -4.7520    1.4500   17.6710 O   0  0  0  0  0  0  0  0  0  0  0  0
   -5.3390   -0.6570   16.2380 N   0  0  0  0  0  0  0  0  0  0  0  0
 15  1  2  0
 16  1  1  0
 22  1  1  0
 16  2  2  0
 17  2  1  0
 20  2  1  0
 15  3  1  0
 17  3  2  0
 18  3  1  0
  5  4  2  0
  9  4  1  0
  6  5  1  0
 23  5  1  0
  7  6  2  0
 10  6  1  0
  8  7  1  0
 11  7  1  0
  9  8  2  0
 26  9  1  0
 12 11  1  0
 13 12  1  0
 14 12  2  0
 15 13  1  0
 21 16  1  0
 19 17  1  0
 24 23  1  0
 25 23  2  0
 27 26  2  0
 28 26  2  0
 29 26  1  0
M  CHG  2  23   1  24  -1
A    1
C13
A    2
C15
A    3
C17
A    4
C01
A    5
C02
A    6
C03
A    7
C04
A    8
C05
A    9
C06
A   10
O07
A   11
N08
A   12
C09
A   13
N10
A   14
O11
A   15
C12
A   16
C14
A   17
C16
A   18
F18
A   19
F19
A   20
F20
A   21
F21
A   22
F22
A   23
N23
A   24
O24
A   25
O25
A   26
S26
A   27
O27
A   28
O28
A   29
N29
M  END
>  <Id>  (278) 
6ECZ_J4D_A_302

>  <ChainId>  (278) 
A

>  <AsymId>  (278) 
C

>  <SeqNum>  (278) 
302

>  <Name>  (278) 
1-[3-nitro-2-oxidanyl-5-[oxidanyl(oxidanylidene)-$l^{4}-azanyl]sulfonyl-phenyl]-3-[2,3,4,5,6-pentakis(fluoranyl)phenyl]urea

>  <SystematicName>  (278) 
1-[3-nitro-2-oxidanyl-5-[oxidanyl(oxidanylidene)-$l^{4}-azanyl]sulfonyl-phenyl]-3-[2,3,4,5,6-pentakis(fluoranyl)phenyl]urea

>  <Synonyms>  (278) 


>  <Type>  (278) 
NON-POLYMER

>  <Formula>  (278) 
C13 H6 F5 N4 O8 S

>  <ObservedFormula>  (278) 
C13 S F5 N4 O6

>  <MolecularWeight>  (278) 
473.266

>  <ModifiedDate>  (278) 
2018-11-23

>  <Parent>  (278) 


>  <OneLetterCode>  (278) 


>  <SubcomponentList>  (278) 


>  <AmbiguousFlag>  (278) 
N

>  <InsertionCode>  (278) 


>  <InstanceId>  (278) 
6ECZ_J4D_A_302

>  <ChemCompId>  (278) 
J4D

>  <PdbId>  (278) 
6ECZ

>  <ResidueNumber>  (278) 
302

>  <InChI>  (278) 
InChI=1S/C13H6F5N4O8S/c14-6-7(15)9(17)11(10(18)8(6)16)20-13(24)19-4-1-3(31(29,30)22(27)28)2-5(12(4)23)21(25)26/h1-2,23H,(H,27,28)(H2,19,20,24)

>  <InChIKey>  (278) 
OTJPTVGRVTVHBI-UHFFFAOYSA-N

>  <SMILES>  (278) 
c1c(cc(c(c1NC(=O)Nc2c(c(c(c(c2F)F)F)F)F)O)N(=O)=O)S(=O)(=O)[N](=O)O

>  <MissingHeavyAtoms>  (278) 
2

>  <Model>  (278) 
1

>  <AltIds>  (278) 


>  <pKI>  (278) 
6.56

>  <ChemblID>  (278) 
-

>  <standardized_canonical_smiles>  (278) 
NS(=O)(=O)c1cc(NC(=O)Nc2c(F)c(F)c(F)c(F)c2F)c(O)c([N+](=O)[O-])c1

$$$$
6EEH_J4D_A_304
     RDKit          3D

 29 30  0  0  0  0  0  0  0  0999 V2000
    4.7370   11.8230   17.4780 C   0  0  0  0  0  0  0  0  0  0  0  0
    4.7690   10.8750   19.6830 C   0  0  0  0  0  0  0  0  0  0  0  0
    2.7630   10.7990   18.3700 C   0  0  0  0  0  0  0  0  0  0  0  0
   -1.2480   16.2530   13.3860 C   0  0  0  0  0  0  0  0  0  0  0  0
   -1.1410   15.0880   12.6390 C   0  0  0  0  0  0  0  0  0  0  0  0
   -0.3150   14.0640   13.1030 C   0  0  0  0  0  0  0  0  0  0  0  0
    0.3850   14.2070   14.2860 C   0  0  0  0  0  0  0  0  0  0  0  0
    0.2850   15.3710   15.0250 C   0  0  0  0  0  0  0  0  0  0  0  0
   -0.5380   16.3900   14.5700 C   0  0  0  0  0  0  0  0  0  0  0  0
   -0.1470   12.8580   12.4160 O   0  0  0  0  0  0  0  0  0  0  0  0
    1.2280   13.0950   14.6840 N   0  0  0  0  0  0  0  0  0  0  0  0
    1.8960   12.9400   15.9640 C   0  0  0  0  0  0  0  0  0  0  0  0
    2.6950   11.7440   16.1270 N   0  0  0  0  0  0  0  0  0  0  0  0
    1.8040   13.7290   16.8470 O   0  0  0  0  0  0  0  0  0  0  0  0
    3.4120   11.4550   17.3480 C   0  0  0  0  0  0  0  0  0  0  0  0
    5.4220   11.5350   18.6490 C   0  0  0  0  0  0  0  0  0  0  0  0
    3.4380   10.5090   19.5410 C   0  0  0  0  0  0  0  0  0  0  0  0
    1.4570   10.4550   18.2040 F   0  0  0  0  0  0  0  0  0  0  0  0
    2.7920    9.8630   20.5540 F   0  0  0  0  0  0  0  0  0  0  0  0
    5.4290   10.5860   20.8440 F   0  0  0  0  0  0  0  0  0  0  0  0
    6.7330   11.9030   18.7800 F   0  0  0  0  0  0  0  0  0  0  0  0
    5.3500   12.4690   16.4420 F   0  0  0  0  0  0  0  0  0  0  0  0
   -1.9180   14.9950   11.4060 N   0  0  0  0  0  0  0  0  0  0  0  0
   -1.7650   14.1220   10.6290 O   0  0  0  0  0  0  0  0  0  0  0  0
   -2.8900   15.9740   11.1500 O   0  0  0  0  0  0  0  0  0  0  0  0
   -0.6880   17.9220   15.5280 S   0  0  0  0  0  0  0  0  0  0  0  0
   -0.8420   17.6280   16.9590 O   0  0  0  0  0  0  0  0  0  0  0  0
   -1.9270   18.6230   15.1610 O   0  0  0  0  0  0  0  0  0  0  0  0
    0.6690   18.9240   15.2330 N   0  0  0  0  0  0  0  0  0  0  0  0
 15  1  2  0
 16  1  1  0
 22  1  1  0
 16  2  2  0
 17  2  1  0
 20  2  1  0
 15  3  1  0
 17  3  2  0
 18  3  1  0
  5  4  2  0
  9  4  1  0
  6  5  1  0
 23  5  1  0
  7  6  2  0
 10  6  1  0
  8  7  1  0
 11  7  1  0
  9  8  2  0
 26  9  1  0
 12 11  1  0
 13 12  1  0
 14 12  2  0
 15 13  1  0
 21 16  1  0
 19 17  1  0
 24 23  1  0
 25 23  2  0
 27 26  2  0
 28 26  2  0
 29 26  1  0
M  CHG  2  23   1  24  -1
A    1
C13
A    2
C15
A    3
C17
A    4
C01
A    5
C02
A    6
C03
A    7
C04
A    8
C05
A    9
C06
A   10
O07
A   11
N08
A   12
C09
A   13
N10
A   14
O11
A   15
C12
A   16
C14
A   17
C16
A   18
F18
A   19
F19
A   20
F20
A   21
F21
A   22
F22
A   23
N23
A   24
O24
A   25
O25
A   26
S26
A   27
O27
A   28
O28
A   29
N29
M  END
>  <Id>  (279) 
6EEH_J4D_A_304

>  <ChainId>  (279) 
A

>  <AsymId>  (279) 
E

>  <SeqNum>  (279) 
304

>  <Name>  (279) 
1-[3-nitro-2-oxidanyl-5-[oxidanyl(oxidanylidene)-$l^{4}-azanyl]sulfonyl-phenyl]-3-[2,3,4,5,6-pentakis(fluoranyl)phenyl]urea

>  <SystematicName>  (279) 
1-[3-nitro-2-oxidanyl-5-[oxidanyl(oxidanylidene)-$l^{4}-azanyl]sulfonyl-phenyl]-3-[2,3,4,5,6-pentakis(fluoranyl)phenyl]urea

>  <Synonyms>  (279) 


>  <Type>  (279) 
NON-POLYMER

>  <Formula>  (279) 
C13 H6 F5 N4 O8 S

>  <ObservedFormula>  (279) 
C13 S F5 N4 O6

>  <MolecularWeight>  (279) 
473.266

>  <ModifiedDate>  (279) 
2018-11-23

>  <Parent>  (279) 


>  <OneLetterCode>  (279) 


>  <SubcomponentList>  (279) 


>  <AmbiguousFlag>  (279) 
N

>  <InsertionCode>  (279) 


>  <InstanceId>  (279) 
6EEH_J4D_A_304

>  <ChemCompId>  (279) 
J4D

>  <PdbId>  (279) 
6EEH

>  <ResidueNumber>  (279) 
304

>  <InChI>  (279) 
InChI=1S/C13H6F5N4O8S/c14-6-7(15)9(17)11(10(18)8(6)16)20-13(24)19-4-1-3(31(29,30)22(27)28)2-5(12(4)23)21(25)26/h1-2,23H,(H,27,28)(H2,19,20,24)

>  <InChIKey>  (279) 
OTJPTVGRVTVHBI-UHFFFAOYSA-N

>  <SMILES>  (279) 
c1c(cc(c(c1NC(=O)Nc2c(c(c(c(c2F)F)F)F)F)O)N(=O)=O)S(=O)(=O)[N](=O)O

>  <MissingHeavyAtoms>  (279) 
2

>  <Model>  (279) 
1

>  <AltIds>  (279) 


>  <pKI>  (279) 
6.56

>  <ChemblID>  (279) 
-

>  <standardized_canonical_smiles>  (279) 
NS(=O)(=O)c1cc(NC(=O)Nc2c(F)c(F)c(F)c(F)c2F)c(O)c([N+](=O)[O-])c1

$$$$
4RN4_3T7_A_303
     RDKit          3D

 39 43  0  0  0  0  0  0  0  0999 V2000
   15.7260    1.5200   18.0760 O   0  0  0  0  0  0  0  0  0  0  0  0
   15.2870    1.3350   16.7250 S   0  0  0  0  0  0  0  0  0  0  0  0
   15.9560    2.6290   15.7060 C   0  0  0  0  0  0  0  0  0  0  0  0
   17.3230    2.6820   15.4160 N   0  0  0  0  0  0  0  0  0  0  0  0
   17.5720    3.8370   14.5390 N   0  0  0  0  0  0  0  0  0  0  0  0
   16.4010    4.5380   14.2720 C   0  0  0  0  0  0  0  0  0  0  0  0
   16.3870    5.7340   13.4550 N   0  0  0  0  0  0  0  0  0  0  0  0
   17.5210    6.0810   12.5960 C   0  0  0  0  0  0  0  0  0  0  0  0
   18.3900    7.1450   13.3230 C   0  0  0  0  0  0  0  0  0  0  0  0
   18.6390    8.4610   12.9480 C   0  0  0  0  0  0  0  0  0  0  0  0
   19.4300    8.9970   13.8950 N   0  0  0  0  0  0  0  0  0  0  0  0
   19.9360   10.3210   13.9530 C   0  0  0  0  0  0  0  0  0  0  0  0
   21.1630   10.5610   14.5600 C   0  0  0  0  0  0  0  0  0  0  0  0
   21.6520   11.8700   14.6320 C   0  0  0  0  0  0  0  0  0  0  0  0
   20.9090   12.9320   14.1050 C   0  0  0  0  0  0  0  0  0  0  0  0
   19.6770   12.6850   13.5070 C   0  0  0  0  0  0  0  0  0  0  0  0
   19.1900   11.3770   13.4360 C   0  0  0  0  0  0  0  0  0  0  0  0
   19.6740    8.0670   14.8440 N   0  0  0  0  0  0  0  0  0  0  0  0
   19.0280    6.9150   14.4850 N   0  0  0  0  0  0  0  0  0  0  0  0
   15.2170    6.5780   13.5110 C   0  0  0  0  0  0  0  0  0  0  0  0
   15.0700    7.3180   12.1800 C   0  0  0  0  0  0  0  0  0  0  0  0
   15.6290    8.5580   11.8870 C   0  0  0  0  0  0  0  0  0  0  0  0
   15.3090    8.8670   10.6460 N   0  0  0  0  0  0  0  0  0  0  0  0
   15.7010   10.0510   10.0010 C   0  0  0  0  0  0  0  0  0  0  0  0
   15.3550    9.8940    8.5530 C   0  0  0  0  0  0  0  0  0  0  0  0
   15.1460   11.1900    7.8340 C   0  0  0  0  0  0  0  0  0  0  0  0
   15.6440   12.4040    8.5340 C   0  0  0  0  0  0  0  0  0  0  0  0
   15.2590   12.4970    9.9930 C   0  0  0  0  0  0  0  0  0  0  0  0
   14.0470   13.3670   10.1760 C   0  0  0  0  0  0  0  0  0  0  0  0
   12.9940   12.9840    9.2990 O   0  0  0  0  0  0  0  0  0  0  0  0
   15.0130   11.1770   10.6410 O   0  0  0  0  0  0  0  0  0  0  0  0
   17.1030   12.4460    8.4370 O   0  0  0  0  0  0  0  0  0  0  0  0
   13.7200   11.3440    7.5530 O   0  0  0  0  0  0  0  0  0  0  0  0
   16.4140    9.1290    7.9270 O   0  0  0  0  0  0  0  0  0  0  0  0
   14.5520    7.8610   10.1110 N   0  0  0  0  0  0  0  0  0  0  0  0
   14.4260    6.9000   11.0770 N   0  0  0  0  0  0  0  0  0  0  0  0
   15.0860    3.8670   15.0170 S   0  0  0  0  0  0  0  0  0  0  0  0
   15.8490   -0.0630   16.1140 N   0  0  0  0  0  0  0  0  0  0  0  0
   13.8670    1.4760   16.6630 O   0  0  0  0  0  0  0  0  0  0  0  0
  2  1  2  0
  3  2  1  0
 38  2  1  0
 39  2  2  0
  4  3  2  0
 37  3  1  0
  5  4  1  0
  6  5  2  0
  7  6  1  0
 37  6  1  0
  8  7  1  0
 20  7  1  0
  9  8  1  0
 10  9  2  0
 19  9  1  0
 11 10  1  0
 12 11  1  0
 18 11  1  0
 13 12  2  0
 17 12  1  0
 14 13  1  0
 15 14  2  0
 16 15  1  0
 17 16  2  0
 19 18  2  0
 21 20  1  0
 22 21  2  0
 36 21  1  0
 23 22  1  0
 24 23  1  0
 35 23  1  0
 25 24  1  0
 31 24  1  0
 26 25  1  0
 34 25  1  0
 27 26  1  0
 33 26  1  0
 28 27  1  0
 32 27  1  0
 29 28  1  0
 31 28  1  0
 30 29  1  0
 36 35  2  0
A    1
O01
A    2
S02
A    3
C03
A    4
N04
A    5
N05
A    6
C06
A    7
N07
A    8
C08
A    9
C09
A   10
C10
A   11
N11
A   12
C12
A   13
C13
A   14
C14
A   15
C15
A   16
C16
A   17
C17
A   18
N18
A   19
N19
A   20
C20
A   21
C21
A   22
C22
A   23
N23
A   24
C24
A   25
C25
A   26
C26
A   27
C27
A   28
C28
A   29
C29
A   30
O30
A   31
O31
A   32
O32
A   33
O33
A   34
O34
A   35
N35
A   36
N36
A   37
S37
A   38
N38
A   39
O39
M  END
>  <Id>  (280) 
4RN4_3T7_A_303

>  <ChainId>  (280) 
A

>  <AsymId>  (280) 
D

>  <SeqNum>  (280) 
303

>  <Name>  (280) 
2-({[1-(beta-D-glucopyranosyl)-1H-1,2,3-triazol-4-yl]methyl}[(1-phenyl-1H-1,2,3-triazol-4-yl)methyl]amino)-5-sulfamoyl-1,3,4-thiadiazole

>  <SystematicName>  (280) 
5-[[1-[(2R,3R,4S,5S,6R)-6-(hydroxymethyl)-3,4,5-tris(oxidanyl)oxan-2-yl]-1,2,3-triazol-4-yl]methyl-[(1-phenyl-1,2,3-triazol-4-yl)methyl]amino]-1,3,4-thiadiazole-2-sulfonamide

>  <Synonyms>  (280) 


>  <Type>  (280) 
NON-POLYMER

>  <Formula>  (280) 
C20 H24 N10 O7 S2

>  <ObservedFormula>  (280) 
S2 C20 N10 O7

>  <MolecularWeight>  (280) 
580.597

>  <ModifiedDate>  (280) 
2015-01-23

>  <Parent>  (280) 


>  <OneLetterCode>  (280) 


>  <SubcomponentList>  (280) 


>  <AmbiguousFlag>  (280) 
N

>  <InsertionCode>  (280) 


>  <InstanceId>  (280) 
4RN4_3T7_A_303

>  <ChemCompId>  (280) 
3T7

>  <PdbId>  (280) 
4RN4

>  <ResidueNumber>  (280) 
303

>  <InChI>  (280) 
InChI=1S/C20H24N10O7S2/c21-39(35,36)20-25-24-19(38-20)28(6-11-8-29(26-22-11)13-4-2-1-3-5-13)7-12-9-30(27-23-12)18-17(34)16(33)15(32)14(10-31)37-18/h1-5,8-9,14-18,31-34H,6-7,10H2,(H2,21,35,36)/t14-,15-,16+,17-,18-/m1/s1

>  <InChIKey>  (280) 
LSGCOZZUFANMGB-UYTYNIKBSA-N

>  <SMILES>  (280) 
c1ccc(cc1)n2cc(nn2)CN(Cc3cn(nn3)[C@H]4[C@@H]([C@H]([C@@H]([C@H](O4)CO)O)O)O)c5nnc(s5)S(=O)(=O)N

>  <MissingHeavyAtoms>  (280) 
0

>  <Model>  (280) 
1

>  <AltIds>  (280) 


>  <pKI>  (280) 
6.94

>  <ChemblID>  (280) 
-

>  <standardized_canonical_smiles>  (280) 
NS(=O)(=O)c1nnc(N(Cc2cn(-c3ccccc3)nn2)Cc2cn([C@@H]3O[C@H](CO)[C@@H](O)[C@H](O)[C@H]3O)nn2)s1

$$$$
5FDC_5WN_A_302
     RDKit          3D

 15 16  0  0  0  0  0  0  0  0999 V2000
   -5.4850    0.8080   16.6230 S   0  0  0  0  0  0  0  0  0  0  0  0
   -6.7660    1.2500   16.1610 O   0  0  0  0  0  0  0  0  0  0  0  0
   -5.2070    0.7620   18.0240 O   0  0  0  0  0  0  0  0  0  0  0  0
   -5.1940   -0.6550   16.0200 N   0  0  0  0  0  0  0  0  0  0  0  0
   -4.3540    1.7870   16.0160 N   0  0  0  0  0  0  0  0  0  0  0  0
   -6.0350    5.6080   13.7600 S   0  0  0  0  0  0  0  0  0  0  0  0
   -5.9900    3.9390   14.2090 C   0  0  0  0  0  0  0  0  0  0  0  0
   -4.7630    3.4010   14.2220 C   0  0  0  0  0  0  0  0  0  0  0  0
   -3.7450    4.3660   13.8520 C   0  0  0  0  0  0  0  0  0  0  0  0
   -4.3150    5.6460   13.5630 C   0  0  0  0  0  0  0  0  0  0  0  0
   -2.3100    4.2300   13.7350 C   0  0  0  0  0  0  0  0  0  0  0  0
   -1.5370    5.3190   13.3550 C   0  0  0  0  0  0  0  0  0  0  0  0
   -2.1210    6.5770   13.0720 C   0  0  0  0  0  0  0  0  0  0  0  0
   -3.5300    6.7590   13.1740 C   0  0  0  0  0  0  0  0  0  0  0  0
   -4.4790    1.9650   14.5780 C   0  0  0  0  0  0  0  0  0  0  0  0
  2  1  2  0
  3  1  2  0
  4  1  1  0
  5  1  1  0
 15  5  1  0
  7  6  1  0
 10  6  1  0
  8  7  2  0
  9  8  1  0
 15  8  1  0
 10  9  2  0
 11  9  1  0
 14 10  1  0
 12 11  2  0
 13 12  1  0
 14 13  2  0
A    1
S1
A    2
O1
A    3
O2
A    4
N1
A    5
N2
A    6
S2
A    7
C1
A    8
C2
A    9
C3
A   10
C4
A   11
C5
A   12
C6
A   13
C7
A   14
C8
A   15
C9
M  END
>  <Id>  (281) 
5FDC_5WN_A_302

>  <ChainId>  (281) 
A

>  <AsymId>  (281) 
C

>  <SeqNum>  (281) 
302

>  <Name>  (281) 
3-[(sulfamoylamino)methyl]-1-benzothiophene

>  <SystematicName>  (281) 
3-[(sulfamoylamino)methyl]-1-benzothiophene

>  <Synonyms>  (281) 
JNJ-26990990

>  <Type>  (281) 
NON-POLYMER

>  <Formula>  (281) 
C9 H10 N2 O2 S2

>  <ObservedFormula>  (281) 
S2 C9 N2 O2

>  <MolecularWeight>  (281) 
242.318

>  <ModifiedDate>  (281) 
2016-05-13

>  <Parent>  (281) 


>  <OneLetterCode>  (281) 


>  <SubcomponentList>  (281) 


>  <AmbiguousFlag>  (281) 
N

>  <InsertionCode>  (281) 


>  <InstanceId>  (281) 
5FDC_5WN_A_302

>  <ChemCompId>  (281) 
5WN

>  <PdbId>  (281) 
5FDC

>  <ResidueNumber>  (281) 
302

>  <InChI>  (281) 
InChI=1S/C9H10N2O2S2/c10-15(12,13)11-5-7-6-14-9-4-2-1-3-8(7)9/h1-4,6,11H,5H2,(H2,10,12,13)

>  <InChIKey>  (281) 
AWSKBQNOSRREEY-UHFFFAOYSA-N

>  <SMILES>  (281) 
c1ccc2c(c1)c(cs2)CNS(=O)(=O)N

>  <MissingHeavyAtoms>  (281) 
0

>  <Model>  (281) 
1

>  <AltIds>  (281) 


>  <pKI>  (281) 
7.46

>  <ChemblID>  (281) 
-

>  <standardized_canonical_smiles>  (281) 
NS(=O)(=O)NCc1csc2ccccc12

$$$$
5FDI_5WM_A_302
     RDKit          3D

 17 18  0  0  0  0  0  0  0  0999 V2000
   -6.8680    1.0870   16.3020 O   0  0  0  0  0  0  0  0  0  0  0  0
   -4.8070    1.2910   17.6170 O   0  0  0  0  0  0  0  0  0  0  0  0
   -5.5850    3.1000   14.6960 C   0  0  0  0  0  0  0  0  0  0  0  0
   -4.7050    4.1260   14.0460 C   0  0  0  0  0  0  0  0  0  0  0  0
   -5.2900    5.2360   13.2330 C   0  0  0  0  0  0  0  0  0  0  0  0
   -6.6400    5.5330   12.9340 C   0  0  0  0  0  0  0  0  0  0  0  0
   -6.9600    6.6500   12.1270 C   0  0  0  0  0  0  0  0  0  0  0  0
   -5.9550    7.4810   11.6070 C   0  0  0  0  0  0  0  0  0  0  0  0
   -4.5860    7.2160   11.8880 C   0  0  0  0  0  0  0  0  0  0  0  0
   -4.2910    6.0930   12.6990 C   0  0  0  0  0  0  0  0  0  0  0  0
   -3.3870    4.1620   14.1120 C   0  0  0  0  0  0  0  0  0  0  0  0
   -5.4380    0.9130   16.3830 S   0  0  0  0  0  0  0  0  0  0  0  0
   -5.0650   -0.5830   16.0760 N   0  0  0  0  0  0  0  0  0  0  0  0
   -4.8180    1.8680   15.1660 N   0  0  0  0  0  0  0  0  0  0  0  0
   -2.7130    5.5070   13.2160 S   0  0  0  0  0  0  0  0  0  0  0  0
   -2.1140    6.4700   14.1100 O   0  0  0  0  0  0  0  0  0  0  0  0
   -1.9430    5.0390   12.0810 O   0  0  0  0  0  0  0  0  0  0  0  0
 12  1  2  0
 12  2  2  0
  4  3  1  0
 14  3  1  0
  5  4  1  0
 11  4  2  0
  6  5  2  0
 10  5  1  0
  7  6  1  0
  8  7  2  0
  9  8  1  0
 10  9  2  0
 15 10  1  0
 15 11  1  0
 13 12  1  0
 14 12  1  0
 16 15  2  0
 17 15  2  0
A    1
O1
A    2
O2
A    3
C1
A    4
C2
A    5
C3
A    6
C4
A    7
C5
A    8
C6
A    9
C7
A   10
C8
A   11
C9
A   12
S1
A   13
N1
A   14
N2
A   15
S2
A   16
O3
A   17
O4
M  END
>  <Id>  (282) 
5FDI_5WM_A_302

>  <ChainId>  (282) 
A

>  <AsymId>  (282) 
C

>  <SeqNum>  (282) 
302

>  <Name>  (282) 
1,1-bis(oxidanylidene)-3-[(sulfamoylamino)methyl]-1-benzothiophene

>  <SystematicName>  (282) 
1,1-bis(oxidanylidene)-3-[(sulfamoylamino)methyl]-1-benzothiophene

>  <Synonyms>  (282) 


>  <Type>  (282) 
NON-POLYMER

>  <Formula>  (282) 
C9 H10 N2 O4 S2

>  <ObservedFormula>  (282) 
C9 S2 N2 O4

>  <MolecularWeight>  (282) 
274.317

>  <ModifiedDate>  (282) 
2016-05-13

>  <Parent>  (282) 


>  <OneLetterCode>  (282) 


>  <SubcomponentList>  (282) 


>  <AmbiguousFlag>  (282) 
N

>  <InsertionCode>  (282) 


>  <InstanceId>  (282) 
5FDI_5WM_A_302

>  <ChemCompId>  (282) 
5WM

>  <PdbId>  (282) 
5FDI

>  <ResidueNumber>  (282) 
302

>  <InChI>  (282) 
InChI=1S/C9H10N2O4S2/c10-17(14,15)11-5-7-6-16(12,13)9-4-2-1-3-8(7)9/h1-4,6,11H,5H2,(H2,10,14,15)

>  <InChIKey>  (282) 
KCPWPUJVAMOFBB-UHFFFAOYSA-N

>  <SMILES>  (282) 
c1ccc2c(c1)C(=CS2(=O)=O)CNS(=O)(=O)N

>  <MissingHeavyAtoms>  (282) 
0

>  <Model>  (282) 
1

>  <AltIds>  (282) 


>  <pKI>  (282) 
7.73

>  <ChemblID>  (282) 
-

>  <standardized_canonical_smiles>  (282) 
NS(=O)(=O)NCC1=CS(=O)(=O)c2ccccc21

$$$$
2O4Z_HSW_A_300
     RDKit          3D

  6  5  0  0  0  0  0  0  0  0999 V2000
   -4.4550    1.4950   14.3290 O   0  0  0  0  0  0  0  0  0  0  0  0
   -4.3820    1.8330   15.7780 N   0  0  0  0  0  0  0  0  0  0  0  0
   -5.4800    0.9060   16.5510 S   0  0  0  0  0  0  0  0  0  0  0  0
   -6.8610    1.4130   16.2970 O   0  0  0  0  0  0  0  0  0  0  0  0
   -5.2560    0.9630   18.0350 O   0  0  0  0  0  0  0  0  0  0  0  0
   -5.2830   -0.6210   16.0470 N   0  0  0  0  0  0  0  0  0  0  0  0
  2  1  1  0
  3  2  1  0
  4  3  2  0
  5  3  2  0
  6  3  1  0
A    1
O3
A    2
N2
A    3
S1
A    4
O2
A    5
O1
A    6
N1
M  END
>  <Id>  (283) 
2O4Z_HSW_A_300

>  <ChainId>  (283) 
A

>  <AsymId>  (283) 
D

>  <SeqNum>  (283) 
300

>  <Name>  (283) 
N-hydroxysulfamide

>  <SystematicName>  (283) 
null

>  <Synonyms>  (283) 


>  <Type>  (283) 
NON-POLYMER

>  <Formula>  (283) 
H4 N2 O3 S

>  <ObservedFormula>  (283) 
S N2 O3

>  <MolecularWeight>  (283) 
112.108

>  <ModifiedDate>  (283) 
2011-06-04

>  <Parent>  (283) 


>  <OneLetterCode>  (283) 


>  <SubcomponentList>  (283) 


>  <AmbiguousFlag>  (283) 


>  <InsertionCode>  (283) 


>  <InstanceId>  (283) 
2O4Z_HSW_A_300

>  <ChemCompId>  (283) 
HSW

>  <PdbId>  (283) 
2O4Z

>  <ResidueNumber>  (283) 
300

>  <InChI>  (283) 
InChI=1S/H4N2O3S/c1-6(4,5)2-3/h2-3H,(H2,1,4,5)

>  <InChIKey>  (283) 
FZTCJYJKHSXPEX-UHFFFAOYSA-N

>  <SMILES>  (283) 
NS(=O)(=O)NO

>  <MissingHeavyAtoms>  (283) 
0

>  <Model>  (283) 
1

>  <AltIds>  (283) 


>  <pKI>  (283) 
6.25

>  <ChemblID>  (283) 
-

>  <standardized_canonical_smiles>  (283) 
NS(=O)(=O)NO

$$$$
5JQT_6M9_A_306
     RDKit          3D

 10 11  0  0  0  0  0  0  0  0999 V2000
   13.1050   -1.1270   12.8310 C   0  0  0  0  0  0  0  0  0  0  0  0
   12.2670   -0.1570   12.2240 C   0  0  0  0  0  0  0  0  0  0  0  0
   11.6630   -0.4490   11.0050 C   0  0  0  0  0  0  0  0  0  0  0  0
   11.9040   -1.6760   10.3700 C   0  0  0  0  0  0  0  0  0  0  0  0
   12.7400   -2.6170   10.9300 C   0  0  0  0  0  0  0  0  0  0  0  0
   13.3380   -2.3400   12.1580 C   0  0  0  0  0  0  0  0  0  0  0  0
   14.2800   -3.2290   12.9610 C   0  0  0  0  0  0  0  0  0  0  0  0
   14.7290   -2.5600   14.2030 O   0  0  0  0  0  0  0  0  0  0  0  0
   14.1480   -0.2980   15.1510 O   0  0  0  0  0  0  0  0  0  0  0  0
   13.9680   -1.1950   14.1660 B   0  0  0  0  0  0  0  0  0  0  0  0
  2  1  2  0
  6  1  1  0
 10  1  1  0
  3  2  1  0
  4  3  2  0
  5  4  1  0
  6  5  2  0
  7  6  1  0
  8  7  1  0
 10  8  1  0
 10  9  1  0
A    1
C1
A    2
C2
A    3
C3
A    4
C4
A    5
C5
A    6
C6
A    7
C7
A    8
O1
A    9
O2
A   10
B1
M  END
>  <Id>  (284) 
5JQT_6M9_A_306

>  <ChainId>  (284) 
A

>  <AsymId>  (284) 
G

>  <SeqNum>  (284) 
306

>  <Name>  (284) 
2,1-benzoxaborol-1(3H)-ol

>  <SystematicName>  (284) 
1-oxidanyl-3~{H}-2,1-benzoxaborole

>  <Synonyms>  (284) 


>  <Type>  (284) 
NON-POLYMER

>  <Formula>  (284) 
C7 H7 B O2

>  <ObservedFormula>  (284) 
B C7 O2

>  <MolecularWeight>  (284) 
133.94

>  <ModifiedDate>  (284) 
2016-10-14

>  <Parent>  (284) 


>  <OneLetterCode>  (284) 


>  <SubcomponentList>  (284) 


>  <AmbiguousFlag>  (284) 
N

>  <InsertionCode>  (284) 


>  <InstanceId>  (284) 
5JQT_6M9_A_306

>  <ChemCompId>  (284) 
6M9

>  <PdbId>  (284) 
5JQT

>  <ResidueNumber>  (284) 
306

>  <InChI>  (284) 
InChI=1S/C7H7BO2/c9-8-7-4-2-1-3-6(7)5-10-8/h1-4,9H,5H2

>  <InChIKey>  (284) 
XOQABDOICLHPIS-UHFFFAOYSA-N

>  <SMILES>  (284) 
B1(c2ccccc2CO1)O

>  <MissingHeavyAtoms>  (284) 
0

>  <Model>  (284) 
1

>  <AltIds>  (284) 


>  <pKI>  (284) 
5.09

>  <ChemblID>  (284) 
-

>  <standardized_canonical_smiles>  (284) 
OB1OCc2ccccc21

$$$$
2OSM_HTS_A_263
     RDKit          3D

  8  8  0  0  0  0  0  0  0  0999 V2000
   -6.3090    3.7360   15.3670 C   0  0  0  0  0  0  0  0  0  0  0  0
   -6.8630    3.2400   16.5570 C   0  0  0  0  0  0  0  0  0  0  0  0
   -6.5390    1.9290   16.9080 C   0  0  0  0  0  0  0  0  0  0  0  0
   -5.7030    1.1540   16.1110 C   0  0  0  0  0  0  0  0  0  0  0  0
   -5.1450    1.6440   14.9170 C   0  0  0  0  0  0  0  0  0  0  0  0
   -5.4810    2.9660   14.5740 C   0  0  0  0  0  0  0  0  0  0  0  0
   -7.0440    1.4420   18.0620 O   0  0  0  0  0  0  0  0  0  0  0  0
   -5.2890   -0.4640   16.6500 S   0  0  0  0  0  0  0  0  0  0  0  0
  2  1  2  0
  6  1  1  0
  3  2  1  0
  7  2  1  0
  4  3  2  0
  8  3  1  0
  5  4  1  0
  6  5  2  0
A    1
C6
A    2
C1
A    3
C2
A    4
C3
A    5
C4
A    6
C5
A    7
O1
A    8
S1
M  END
>  <Id>  (285) 
2OSM_HTS_A_263

>  <ChainId>  (285) 
A

>  <AsymId>  (285) 
C

>  <SeqNum>  (285) 
263

>  <Name>  (285) 
2-MERCAPTOPHENOL

>  <SystematicName>  (285) 
2-sulfanylphenol

>  <Synonyms>  (285) 
2-HYDROXYTHIOPHENOL

>  <Type>  (285) 
NON-POLYMER

>  <Formula>  (285) 
C6 H6 O S

>  <ObservedFormula>  (285) 
C6 S O

>  <MolecularWeight>  (285) 
126.176

>  <ModifiedDate>  (285) 
2012-12-18

>  <Parent>  (285) 


>  <OneLetterCode>  (285) 


>  <SubcomponentList>  (285) 


>  <AmbiguousFlag>  (285) 
N

>  <InsertionCode>  (285) 


>  <InstanceId>  (285) 
2OSM_HTS_A_263

>  <ChemCompId>  (285) 
HTS

>  <PdbId>  (285) 
2OSM

>  <ResidueNumber>  (285) 
263

>  <InChI>  (285) 
InChI=1S/C6H6OS/c7-5-3-1-2-4-6(5)8/h1-4,7-8H

>  <InChIKey>  (285) 
VMKYTRPNOVFCGZ-UHFFFAOYSA-N

>  <SMILES>  (285) 
c1ccc(c(c1)O)S

>  <MissingHeavyAtoms>  (285) 
0

>  <Model>  (285) 
1

>  <AltIds>  (285) 


>  <pKI>  (285) 
6.2

>  <ChemblID>  (285) 
-

>  <standardized_canonical_smiles>  (285) 
Oc1ccccc1S

$$$$
5TI0_7CZ_A_302
     RDKit          3D

  9  9  0  0  0  0  0  0  0  0999 V2000
   -6.2320    0.3190   17.1540 S   0  0  0  0  0  0  0  0  0  0  0  0
   -5.8620    1.6780   16.2020 C   0  0  0  0  0  0  0  0  0  0  0  0
   -6.2740    2.9800   16.6200 C   0  0  0  0  0  0  0  0  0  0  0  0
   -6.0580    4.2390   15.9580 C   0  0  0  0  0  0  0  0  0  0  0  0
   -5.4030    4.5240   14.7550 C   0  0  0  0  0  0  0  0  0  0  0  0
   -4.7910    3.5940   13.9040 C   0  0  0  0  0  0  0  0  0  0  0  0
   -4.6690    2.2300   14.0030 C   0  0  0  0  0  0  0  0  0  0  0  0
   -5.1350    1.4110   14.9990 C   0  0  0  0  0  0  0  0  0  0  0  0
   -4.8080    0.1300   14.7240 O   0  0  0  0  0  0  0  0  0  0  0  0
  2  1  2  0
  3  2  1  0
  8  2  1  0
  4  3  2  0
  5  4  1  0
  6  5  2  0
  7  6  1  0
  8  7  2  0
  9  8  1  0
A    1
SAH
A    2
CAF
A    3
CAG
A    4
CAD
A    5
CAC
A    6
CAB
A    7
CAA
A    8
CAE
A    9
OAI
M  END
>  <Id>  (286) 
5TI0_7CZ_A_302

>  <ChainId>  (286) 
A

>  <AsymId>  (286) 
C

>  <SeqNum>  (286) 
302

>  <Name>  (286) 
2-hydroxycyclohepta-2,4,6-triene-1-thione

>  <SystematicName>  (286) 
2-oxidanylcyclohepta-2,4,6-triene-1-thione

>  <Synonyms>  (286) 


>  <Type>  (286) 
NON-POLYMER

>  <Formula>  (286) 
C7 H6 O S

>  <ObservedFormula>  (286) 
S C7 O

>  <MolecularWeight>  (286) 
138.187

>  <ModifiedDate>  (286) 
2017-04-21

>  <Parent>  (286) 


>  <OneLetterCode>  (286) 


>  <SubcomponentList>  (286) 


>  <AmbiguousFlag>  (286) 
N

>  <InsertionCode>  (286) 


>  <InstanceId>  (286) 
5TI0_7CZ_A_302

>  <ChemCompId>  (286) 
7CZ

>  <PdbId>  (286) 
5TI0

>  <ResidueNumber>  (286) 
302

>  <InChI>  (286) 
InChI=1S/C7H6OS/c8-6-4-2-1-3-5-7(6)9/h1-5H,(H,8,9)

>  <InChIKey>  (286) 
DNBQDZRBEGFUEA-UHFFFAOYSA-N

>  <SMILES>  (286) 
C1=CC=C(C(=S)C=C1)O

>  <MissingHeavyAtoms>  (286) 
0

>  <Model>  (286) 
1

>  <AltIds>  (286) 


>  <pKI>  (286) 
4.12

>  <ChemblID>  (286) 
-

>  <standardized_canonical_smiles>  (286) 
Oc1cccccc1=S

$$$$
5THN_7CZ_A_305
     RDKit          3D

  9  9  0  0  0  0  0  0  0  0999 V2000
   -6.1220    0.2980   17.0570 S   0  0  0  0  0  0  0  0  0  0  0  0
   -5.7520    1.6260   16.0600 C   0  0  0  0  0  0  0  0  0  0  0  0
   -6.2410    2.9380   16.3880 C   0  0  0  0  0  0  0  0  0  0  0  0
   -6.1030    4.2170   15.7630 C   0  0  0  0  0  0  0  0  0  0  0  0
   -5.4260    4.4990   14.6330 C   0  0  0  0  0  0  0  0  0  0  0  0
   -4.7480    3.6170   13.8750 C   0  0  0  0  0  0  0  0  0  0  0  0
   -4.5390    2.2470   13.9960 C   0  0  0  0  0  0  0  0  0  0  0  0
   -4.9690    1.3810   14.9370 C   0  0  0  0  0  0  0  0  0  0  0  0
   -4.5680    0.1080   14.7300 O   0  0  0  0  0  0  0  0  0  0  0  0
  2  1  2  0
  3  2  1  0
  8  2  1  0
  4  3  2  0
  5  4  1  0
  6  5  2  0
  7  6  1  0
  8  7  2  0
  9  8  1  0
A    1
SAH
A    2
CAF
A    3
CAG
A    4
CAD
A    5
CAC
A    6
CAB
A    7
CAA
A    8
CAE
A    9
OAI
M  END
>  <Id>  (287) 
5THN_7CZ_A_305

>  <ChainId>  (287) 
A

>  <AsymId>  (287) 
F

>  <SeqNum>  (287) 
305

>  <Name>  (287) 
2-hydroxycyclohepta-2,4,6-triene-1-thione

>  <SystematicName>  (287) 
2-oxidanylcyclohepta-2,4,6-triene-1-thione

>  <Synonyms>  (287) 


>  <Type>  (287) 
NON-POLYMER

>  <Formula>  (287) 
C7 H6 O S

>  <ObservedFormula>  (287) 
S C7 O

>  <MolecularWeight>  (287) 
138.187

>  <ModifiedDate>  (287) 
2017-04-21

>  <Parent>  (287) 


>  <OneLetterCode>  (287) 


>  <SubcomponentList>  (287) 


>  <AmbiguousFlag>  (287) 
N

>  <InsertionCode>  (287) 


>  <InstanceId>  (287) 
5THN_7CZ_A_305

>  <ChemCompId>  (287) 
7CZ

>  <PdbId>  (287) 
5THN

>  <ResidueNumber>  (287) 
305

>  <InChI>  (287) 
InChI=1S/C7H6OS/c8-6-4-2-1-3-5-7(6)9/h1-5H,(H,8,9)

>  <InChIKey>  (287) 
DNBQDZRBEGFUEA-UHFFFAOYSA-N

>  <SMILES>  (287) 
C1=CC=C(C(=S)C=C1)O

>  <MissingHeavyAtoms>  (287) 
0

>  <Model>  (287) 
1

>  <AltIds>  (287) 


>  <pKI>  (287) 
4.12

>  <ChemblID>  (287) 
-

>  <standardized_canonical_smiles>  (287) 
Oc1cccccc1=S

$$$$
2OSF_TH0_A_263
     RDKit          3D

  9  9  0  0  0  0  0  0  0  0999 V2000
   -6.4720    3.1380   16.2150 C   0  0  0  0  0  0  0  0  0  0  0  0
   -6.2820    1.8150   16.6210 C   0  0  0  0  0  0  0  0  0  0  0  0
   -6.7820    1.1950   17.7190 O   0  0  0  0  0  0  0  0  0  0  0  0
   -5.3800   -0.6500   16.5780 S   0  0  0  0  0  0  0  0  0  0  0  0
   -5.4910    0.9580   15.8660 C   0  0  0  0  0  0  0  0  0  0  0  0
   -4.8810    1.4270   14.6940 C   0  0  0  0  0  0  0  0  0  0  0  0
   -5.0820    2.7420   14.2840 C   0  0  0  0  0  0  0  0  0  0  0  0
   -5.8730    3.5950   15.0380 C   0  0  0  0  0  0  0  0  0  0  0  0
   -6.0240    4.8970   14.6700 O   0  0  0  0  0  0  0  0  0  0  0  0
  2  1  2  0
  8  1  1  0
  3  2  1  0
  5  2  1  0
  5  4  1  0
  6  5  2  0
  7  6  1  0
  8  7  2  0
  9  8  1  0
A    1
C1
A    2
C2
A    3
O1
A    4
S1
A    5
C3
A    6
C4
A    7
C5
A    8
C6
A    9
O3
M  END
>  <Id>  (288) 
2OSF_TH0_A_263

>  <ChainId>  (288) 
A

>  <AsymId>  (288) 
C

>  <SeqNum>  (288) 
263

>  <Name>  (288) 
4-MERCAPTOBENZENE-1,3-DIOL

>  <SystematicName>  (288) 
4-sulfanylbenzene-1,3-diol

>  <Synonyms>  (288) 


>  <Type>  (288) 
NON-POLYMER

>  <Formula>  (288) 
C6 H6 O2 S

>  <ObservedFormula>  (288) 
C6 S O2

>  <MolecularWeight>  (288) 
142.176

>  <ModifiedDate>  (288) 
2011-06-04

>  <Parent>  (288) 


>  <OneLetterCode>  (288) 


>  <SubcomponentList>  (288) 


>  <AmbiguousFlag>  (288) 


>  <InsertionCode>  (288) 


>  <InstanceId>  (288) 
2OSF_TH0_A_263

>  <ChemCompId>  (288) 
TH0

>  <PdbId>  (288) 
2OSF

>  <ResidueNumber>  (288) 
263

>  <InChI>  (288) 
InChI=1S/C6H6O2S/c7-4-1-2-6(9)5(8)3-4/h1-3,7-9H

>  <InChIKey>  (288) 
XFTQIEMOLHJTFV-UHFFFAOYSA-N

>  <SMILES>  (288) 
c1cc(c(cc1O)O)S

>  <MissingHeavyAtoms>  (288) 
0

>  <Model>  (288) 
1

>  <AltIds>  (288) 


>  <pKI>  (288) 
3.83

>  <ChemblID>  (288) 
-

>  <standardized_canonical_smiles>  (288) 
Oc1ccc(S)c(O)c1

$$$$
4FIK_TH0_A_305
     RDKit          3D

  9  9  0  0  0  0  0  0  0  0999 V2000
  -11.0050   11.9460    8.0200 C   0  0  0  0  0  0  0  0  0  0  0  0
  -10.5700   10.7850    7.5140 C   0  0  0  0  0  0  0  0  0  0  0  0
  -11.4330    9.7660    7.2280 O   0  0  0  0  0  0  0  0  0  0  0  0
   -8.4330    9.1490    6.6620 S   0  0  0  0  0  0  0  0  0  0  0  0
   -9.1660   10.5610    7.3750 C   0  0  0  0  0  0  0  0  0  0  0  0
   -8.2550   11.6130    7.6990 C   0  0  0  0  0  0  0  0  0  0  0  0
   -8.6900   12.8160    8.2370 C   0  0  0  0  0  0  0  0  0  0  0  0
  -10.0470   13.0230    8.3840 C   0  0  0  0  0  0  0  0  0  0  0  0
  -10.5470   14.1780    8.9500 O   0  0  0  0  0  0  0  0  0  0  0  0
  2  1  2  0
  8  1  1  0
  3  2  1  0
  5  2  1  0
  5  4  1  0
  6  5  2  0
  7  6  1  0
  8  7  2  0
  9  8  1  0
A    1
C1
A    2
C2
A    3
O1
A    4
S1
A    5
C3
A    6
C4
A    7
C5
A    8
C6
A    9
O3
M  END
>  <Id>  (289) 
4FIK_TH0_A_305

>  <ChainId>  (289) 
A

>  <AsymId>  (289) 
F

>  <SeqNum>  (289) 
305

>  <Name>  (289) 
4-MERCAPTOBENZENE-1,3-DIOL

>  <SystematicName>  (289) 
4-sulfanylbenzene-1,3-diol

>  <Synonyms>  (289) 


>  <Type>  (289) 
NON-POLYMER

>  <Formula>  (289) 
C6 H6 O2 S

>  <ObservedFormula>  (289) 
C6 S O2

>  <MolecularWeight>  (289) 
142.176

>  <ModifiedDate>  (289) 
2011-06-04

>  <Parent>  (289) 


>  <OneLetterCode>  (289) 


>  <SubcomponentList>  (289) 


>  <AmbiguousFlag>  (289) 


>  <InsertionCode>  (289) 


>  <InstanceId>  (289) 
4FIK_TH0_A_305

>  <ChemCompId>  (289) 
TH0

>  <PdbId>  (289) 
4FIK

>  <ResidueNumber>  (289) 
305

>  <InChI>  (289) 
InChI=1S/C6H6O2S/c7-4-1-2-6(9)5(8)3-4/h1-3,7-9H

>  <InChIKey>  (289) 
XFTQIEMOLHJTFV-UHFFFAOYSA-N

>  <SMILES>  (289) 
c1cc(c(cc1O)O)S

>  <MissingHeavyAtoms>  (289) 
0

>  <Model>  (289) 
1

>  <AltIds>  (289) 


>  <pKI>  (289) 
3.83

>  <ChemblID>  (289) 
-

>  <standardized_canonical_smiles>  (289) 
Oc1ccc(S)c(O)c1

$$$$
6CJV_G2Y_A_302
     RDKit          3D

 23 24  0  0  0  0  0  0  0  0999 V2000
  -23.2230    8.9990    8.6370 C   0  0  0  0  0  0  0  0  0  0  0  0
  -24.7120    9.0740    8.7650 C   0  0  0  0  0  0  0  0  0  0  0  0
  -25.0620    9.6600   10.0930 C   0  0  0  0  0  0  0  0  0  0  0  0
  -24.5600    8.6740   11.1440 C   0  0  0  0  0  0  0  0  0  0  0  0
  -22.5750    8.4020    9.9010 C   0  0  0  0  0  0  0  0  0  0  0  0
  -21.1040    8.6000    9.8750 C   0  0  0  0  0  0  0  0  0  0  0  0
  -25.2860    8.0710   13.4770 C   0  0  0  0  0  0  0  0  0  0  0  0
  -23.6320    6.3440   13.1250 C   0  0  0  0  0  0  0  0  0  0  0  0
  -25.1420    6.5730   13.0540 C   0  0  0  0  0  0  0  0  0  0  0  0
  -23.0330    7.5360   13.4610 C   0  0  0  0  0  0  0  0  0  0  0  0
  -26.6680    8.7200   13.4010 C   0  0  0  0  0  0  0  0  0  0  0  0
  -22.0380    7.4450   14.5860 C   0  0  0  0  0  0  0  0  0  0  0  0
  -23.0990    8.9660   11.1700 O   0  0  0  0  0  0  0  0  0  0  0  0
  -25.2880    9.8660    7.7000 O   0  0  0  0  0  0  0  0  0  0  0  0
  -26.4640    9.9380   10.2150 O   0  0  0  0  0  0  0  0  0  0  0  0
  -20.6010    7.7520   10.8860 O   0  0  0  0  0  0  0  0  0  0  0  0
  -25.2210    8.9130   12.3020 O   0  0  0  0  0  0  0  0  0  0  0  0
  -24.1680    8.5940   13.8660 O   0  0  0  0  0  0  0  0  0  0  0  0
  -25.7120    6.2570   11.8620 O   0  0  0  0  0  0  0  0  0  0  0  0
  -23.4140    5.2480   14.1110 O   0  0  0  0  0  0  0  0  0  0  0  0
  -22.5210   10.6680    8.3120 Cl  0  0  0  0  0  0  0  0  0  0  0  0
  -21.5630    9.0260   15.3000 Cl  0  0  0  0  0  0  0  0  0  0  0  0
  -27.2470    8.3900   15.0380 Cl  0  0  0  0  0  0  0  0  0  0  0  0
  2  1  1  0
  5  1  1  0
 21  1  1  0
  3  2  1  0
 14  2  1  0
  4  3  1  0
 15  3  1  0
 13  4  1  0
 17  4  1  0
  6  5  1  0
 13  5  1  0
 16  6  1  0
  9  7  1  0
 11  7  1  0
 17  7  1  0
 18  7  1  0
  9  8  1  0
 10  8  1  0
 20  8  1  0
 19  9  1  0
 12 10  1  0
 18 10  1  0
 23 11  1  0
 22 12  1  0
A    1
C01
A    2
C02
A    3
C03
A    4
C04
A    5
C06
A    6
C10
A    7
C13
A    8
C14
A    9
C15
A   10
C17
A   11
C18
A   12
C21
A   13
O05
A   14
O08
A   15
O09
A   16
O11
A   17
O12
A   18
O16
A   19
O19
A   20
O20
A   21
CL1
A   22
CL2
A   23
CL3
M  END
>  <Id>  (290) 
6CJV_G2Y_A_302

>  <ChainId>  (290) 
A

>  <AsymId>  (290) 
C

>  <SeqNum>  (290) 
302

>  <Name>  (290) 
1,6-dichloro-1,6-dideoxy-alpha-L-sorbofuranosyl 4-chloro-4-deoxy-beta-D-galactopyranoside

>  <SystematicName>  (290) 
(2~{S},3~{R},4~{R},5~{R},6~{R})-2-[(2~{R},3~{S},4~{S},5~{R})-2,5-bis(chloromethyl)-3,4-bis(oxidanyl)oxolan-2-yl]oxy-5-chloranyl-6-(hydroxymethyl)oxane-3,4-diol

>  <Synonyms>  (290) 


>  <Type>  (290) 
NON-POLYMER

>  <Formula>  (290) 
C12 H19 Cl3 O8

>  <ObservedFormula>  (290) 
C12 Cl3 O8

>  <MolecularWeight>  (290) 
397.633

>  <ModifiedDate>  (290) 
2018-08-03

>  <Parent>  (290) 


>  <OneLetterCode>  (290) 


>  <SubcomponentList>  (290) 


>  <AmbiguousFlag>  (290) 
N

>  <InsertionCode>  (290) 


>  <InstanceId>  (290) 
6CJV_G2Y_A_302

>  <ChemCompId>  (290) 
G2Y

>  <PdbId>  (290) 
6CJV

>  <ResidueNumber>  (290) 
302

>  <InChI>  (290) 
InChI=1S/C12H19Cl3O8/c13-1-4-7(17)10(20)12(3-14,22-4)23-11-9(19)8(18)6(15)5(2-16)21-11/h4-11,16-20H,1-3H2/t4-,5+,6-,7+,8-,9+,10-,11-,12-/m0/s1

>  <InChIKey>  (290) 
BAQAVOSOZGMPRM-RGUBMTAVSA-N

>  <SMILES>  (290) 
C([C@@H]1[C@@H]([C@@H]([C@H]([C@@H](O1)O[C@]2([C@H]([C@@H]([C@@H](O2)CCl)O)O)CCl)O)O)Cl)O

>  <MissingHeavyAtoms>  (290) 
0

>  <Model>  (290) 
1

>  <AltIds>  (290) 


>  <pKI>  (290) 
6.52

>  <ChemblID>  (290) 
-

>  <standardized_canonical_smiles>  (290) 
OC[C@H]1O[C@@H](O[C@]2(CCl)O[C@@H](CCl)[C@@H](O)[C@@H]2O)[C@H](O)[C@@H](O)[C@H]1Cl

$$$$
4FL7_BHO_A_304
     RDKit          3D

 10 10  0  0  0  0  0  0  0  0999 V2000
   -5.6810    2.4480   15.8620 C   0  0  0  0  0  0  0  0  0  0  0  0
   -5.0170    3.2010   14.8390 C   0  0  0  0  0  0  0  0  0  0  0  0
   -5.0660    4.6050   14.8380 C   0  0  0  0  0  0  0  0  0  0  0  0
   -5.7730    5.2800   15.8490 C   0  0  0  0  0  0  0  0  0  0  0  0
   -6.4330    4.5750   16.8630 C   0  0  0  0  0  0  0  0  0  0  0  0
   -6.3910    3.1740   16.8750 C   0  0  0  0  0  0  0  0  0  0  0  0
   -5.6510    0.9480   15.8760 C   0  0  0  0  0  0  0  0  0  0  0  0
   -6.6010    0.3020   16.3000 O   0  0  0  0  0  0  0  0  0  0  0  0
   -4.5690    0.3300   15.3970 N   0  0  0  0  0  0  0  0  0  0  0  0
   -4.6350   -1.0640   15.2500 O   0  0  0  0  0  0  0  0  0  0  0  0
  2  1  2  0
  6  1  1  0
  7  1  1  0
  3  2  1  0
  4  3  2  0
  5  4  1  0
  6  5  2  0
  8  7  2  0
  9  7  1  0
 10  9  1  0
A    1
C1
A    2
C2
A    3
C3
A    4
C4
A    5
C5
A    6
C6
A    7
C
A    8
O1
A    9
N
A   10
O2
M  END
>  <Id>  (291) 
4FL7_BHO_A_304

>  <ChainId>  (291) 
A

>  <AsymId>  (291) 
E

>  <SeqNum>  (291) 
304

>  <Name>  (291) 
BENZHYDROXAMIC ACID

>  <SystematicName>  (291) 
N-hydroxybenzamide

>  <Synonyms>  (291) 


>  <Type>  (291) 
NON-POLYMER

>  <Formula>  (291) 
C7 H7 N O2

>  <ObservedFormula>  (291) 
C7 N O2

>  <MolecularWeight>  (291) 
137.136

>  <ModifiedDate>  (291) 
2011-06-04

>  <Parent>  (291) 


>  <OneLetterCode>  (291) 


>  <SubcomponentList>  (291) 


>  <AmbiguousFlag>  (291) 
N

>  <InsertionCode>  (291) 


>  <InstanceId>  (291) 
4FL7_BHO_A_304

>  <ChemCompId>  (291) 
BHO

>  <PdbId>  (291) 
4FL7

>  <ResidueNumber>  (291) 
304

>  <InChI>  (291) 
InChI=1S/C7H7NO2/c9-7(8-10)6-4-2-1-3-5-6/h1-5,10H,(H,8,9)

>  <InChIKey>  (291) 
VDEUYMSGMPQMIK-UHFFFAOYSA-N

>  <SMILES>  (291) 
c1ccc(cc1)C(=O)NO

>  <MissingHeavyAtoms>  (291) 
0

>  <Model>  (291) 
1

>  <AltIds>  (291) 


>  <pKI>  (291) 
3.75

>  <ChemblID>  (291) 
-

>  <standardized_canonical_smiles>  (291) 
O=C(NO)c1ccccc1

$$$$
4E4A_JKE_A_302
     RDKit          3D

 10 10  0  0  0  0  0  0  0  0999 V2000
   15.0270    4.4040   14.0040 S   0  0  0  0  0  0  0  0  0  0  0  0
   16.7260    2.3700   15.2740 C   0  0  0  0  0  0  0  0  0  0  0  0
   17.4480    3.4770   14.5920 C   0  0  0  0  0  0  0  0  0  0  0  0
   17.4330    5.4910   13.3220 C   0  0  0  0  0  0  0  0  0  0  0  0
   15.4710    2.1550   15.1570 O   0  0  0  0  0  0  0  0  0  0  0  0
   19.4930    4.6050   13.9610 C   0  0  0  0  0  0  0  0  0  0  0  0
   17.4000    1.7780   16.0980 O   0  0  0  0  0  0  0  0  0  0  0  0
   16.7520    4.4780   13.9840 C   0  0  0  0  0  0  0  0  0  0  0  0
   18.8470    3.5410   14.6110 C   0  0  0  0  0  0  0  0  0  0  0  0
   18.7810    5.5910   13.3150 C   0  0  0  0  0  0  0  0  0  0  0  0
  8  1  1  0
  3  2  1  0
  5  2  2  0
  7  2  1  0
  8  3  2  0
  9  3  1  0
  8  4  1  0
 10  4  2  0
  9  6  2  0
 10  6  1  0
A    1
SD
A    2
CG
A    3
CZ
A    4
CD1
A    5
OD1
A    6
CD2
A    7
OD2
A    8
CE1
A    9
CE2
A   10
CG1
M  END
>  <Id>  (292) 
4E4A_JKE_A_302

>  <ChainId>  (292) 
A

>  <AsymId>  (292) 
C

>  <SeqNum>  (292) 
302

>  <Name>  (292) 
2-sulfanylbenzoic acid

>  <SystematicName>  (292) 
2-sulfanylbenzoic acid

>  <Synonyms>  (292) 


>  <Type>  (292) 
NON-POLYMER

>  <Formula>  (292) 
C7 H6 O2 S

>  <ObservedFormula>  (292) 
S C7 O2

>  <MolecularWeight>  (292) 
154.186

>  <ModifiedDate>  (292) 
2011-06-04

>  <Parent>  (292) 


>  <OneLetterCode>  (292) 


>  <SubcomponentList>  (292) 


>  <AmbiguousFlag>  (292) 
N

>  <InsertionCode>  (292) 


>  <InstanceId>  (292) 
4E4A_JKE_A_302

>  <ChemCompId>  (292) 
JKE

>  <PdbId>  (292) 
4E4A

>  <ResidueNumber>  (292) 
302

>  <InChI>  (292) 
InChI=1S/C7H6O2S/c8-7(9)5-3-1-2-4-6(5)10/h1-4,10H,(H,8,9)

>  <InChIKey>  (292) 
NBOMNTLFRHMDEZ-UHFFFAOYSA-N

>  <SMILES>  (292) 
c1ccc(c(c1)C(=O)O)S

>  <MissingHeavyAtoms>  (292) 
0

>  <Model>  (292) 
1

>  <AltIds>  (292) 


>  <pKI>  (292) 
2.05

>  <ChemblID>  (292) 
-

>  <standardized_canonical_smiles>  (292) 
O=C(O)c1ccccc1S

$$$$
4QY3_3G1_A_302
     RDKit          3D

 18 19  0  0  0  0  0  0  0  0999 V2000
    6.4690   -8.5960    6.1710 C   0  0  0  0  0  0  0  0  0  0  0  0
    5.4160   -8.2950    7.0430 C   0  0  0  0  0  0  0  0  0  0  0  0
    4.7780   -9.3490    7.7090 C   0  0  0  0  0  0  0  0  0  0  0  0
    5.1720  -10.6560    7.5020 C   0  0  0  0  0  0  0  0  0  0  0  0
    6.8570   -9.9150    5.9680 C   0  0  0  0  0  0  0  0  0  0  0  0
    6.2250   -7.2390    3.7660 C   0  0  0  0  0  0  0  0  0  0  0  0
    5.7110   -4.7960    3.5230 C   0  0  0  0  0  0  0  0  0  0  0  0
    5.7020   -3.6310    2.7830 C   0  0  0  0  0  0  0  0  0  0  0  0
    6.2620   -3.6010    1.5210 C   0  0  0  0  0  0  0  0  0  0  0  0
    6.8360   -4.7470    1.0080 C   0  0  0  0  0  0  0  0  0  0  0  0
    6.8490   -5.9170    1.7420 C   0  0  0  0  0  0  0  0  0  0  0  0
    5.7050   -6.0100    6.6820 O   0  0  0  0  0  0  0  0  0  0  0  0
    5.0340   -6.8760    7.2830 C   0  0  0  0  0  0  0  0  0  0  0  0
    4.0830   -6.6730    8.0680 O   0  0  0  0  0  0  0  0  0  0  0  0
    6.2010  -10.9380    6.6430 C   0  0  0  0  0  0  0  0  0  0  0  0
    7.3730   -7.3550    5.2120 S   0  0  0  0  0  0  0  0  0  0  0  0
    8.6280   -8.0390    4.7860 O   0  0  0  0  0  0  0  0  0  0  0  0
    6.2800   -5.9560    3.0100 C   0  0  0  0  0  0  0  0  0  0  0  0
  2  1  2  0
  5  1  1  0
 16  1  1  0
  3  2  1  0
 13  2  1  0
  4  3  2  0
 15  4  1  0
 15  5  2  0
 16  6  1  0
 18  6  1  0
  8  7  2  0
 18  7  1  0
  9  8  1  0
 10  9  2  0
 11 10  1  0
 18 11  2  0
 13 12  2  0
 14 13  1  0
 17 16  2  0
A    1
C1
A    2
C2
A    3
C3
A    4
C4
A    5
C6
A    6
C8
A    7
C10
A    8
C11
A    9
C12
A   10
C13
A   11
C14
A   12
O2
A   13
C7
A   14
O3
A   15
C5
A   16
S1
A   17
O1
A   18
C9
M  END
>  <Id>  (293) 
4QY3_3G1_A_302

>  <ChainId>  (293) 
A

>  <AsymId>  (293) 
C

>  <SeqNum>  (293) 
302

>  <Name>  (293) 
2-[(S)-benzylsulfinyl]benzoic acid

>  <SystematicName>  (293) 
2-[(S)-(phenylmethyl)sulfinyl]benzoic acid

>  <Synonyms>  (293) 


>  <Type>  (293) 
NON-POLYMER

>  <Formula>  (293) 
C14 H12 O3 S

>  <ObservedFormula>  (293) 
C14 S O3

>  <MolecularWeight>  (293) 
260.308

>  <ModifiedDate>  (293) 
2014-11-28

>  <Parent>  (293) 


>  <OneLetterCode>  (293) 


>  <SubcomponentList>  (293) 


>  <AmbiguousFlag>  (293) 
N

>  <InsertionCode>  (293) 


>  <InstanceId>  (293) 
4QY3_3G1_A_302

>  <ChemCompId>  (293) 
3G1

>  <PdbId>  (293) 
4QY3

>  <ResidueNumber>  (293) 
302

>  <InChI>  (293) 
InChI=1S/C14H12O3S/c15-14(16)12-8-4-5-9-13(12)18(17)10-11-6-2-1-3-7-11/h1-9H,10H2,(H,15,16)/t18-/m0/s1

>  <InChIKey>  (293) 
IHSDWNKZUMUWEX-SFHVURJKSA-N

>  <SMILES>  (293) 
c1ccc(cc1)C[S@](=O)c2ccccc2C(=O)O

>  <MissingHeavyAtoms>  (293) 
0

>  <Model>  (293) 
1

>  <AltIds>  (293) 


>  <pKI>  (293) 
6.82

>  <ChemblID>  (293) 
-

>  <standardized_canonical_smiles>  (293) 
O=C(O)c1ccccc1[S@@](=O)Cc1ccccc1

$$$$
4Q8Y_HQT_A_303
     RDKit          3D

 12 13  0  0  0  0  0  0  0  0999 V2000
   15.0320    0.1280   17.0050 S   0  0  0  0  0  0  0  0  0  0  0  0
   15.5520    1.2340   15.7460 C   0  0  0  0  0  0  0  0  0  0  0  0
   15.3070    2.5790   15.8690 C   0  0  0  0  0  0  0  0  0  0  0  0
   14.6170    3.0850   17.0380 C   0  0  0  0  0  0  0  0  0  0  0  0
   14.3860    4.4090   17.1650 C   0  0  0  0  0  0  0  0  0  0  0  0
   14.7960    5.3080   16.1320 C   0  0  0  0  0  0  0  0  0  0  0  0
   15.4570    4.8140   14.9910 C   0  0  0  0  0  0  0  0  0  0  0  0
   15.7130    3.4520   14.8700 C   0  0  0  0  0  0  0  0  0  0  0  0
   16.3650    2.9710   13.7590 C   0  0  0  0  0  0  0  0  0  0  0  0
   16.6060    1.6640   13.6410 C   0  0  0  0  0  0  0  0  0  0  0  0
   16.1980    0.7680   14.6720 N   0  0  0  0  0  0  0  0  0  0  0  0
   16.4490   -0.5340   14.5600 O   0  0  0  0  0  0  0  0  0  0  0  0
  2  1  2  0
  3  2  1  0
 11  2  1  0
  4  3  2  0
  8  3  1  0
  5  4  1  0
  6  5  2  0
  7  6  1  0
  8  7  2  0
  9  8  1  0
 10  9  2  0
 11 10  1  0
 12 11  1  0
A    1
S1
A    2
C1
A    3
C9
A    4
C8
A    5
C7
A    6
C6
A    7
C5
A    8
C4
A    9
C3
A   10
C2
A   11
N1
A   12
O1
M  END
>  <Id>  (294) 
4Q8Y_HQT_A_303

>  <ChainId>  (294) 
A

>  <AsymId>  (294) 
D

>  <SeqNum>  (294) 
303

>  <Name>  (294) 
2-hydroxyisoquinoline-1(2H)-thione

>  <SystematicName>  (294) 
2-oxidanylisoquinoline-1-thione

>  <Synonyms>  (294) 


>  <Type>  (294) 
NON-POLYMER

>  <Formula>  (294) 
C9 H7 N O S

>  <ObservedFormula>  (294) 
S C9 N O

>  <MolecularWeight>  (294) 
177.223

>  <ModifiedDate>  (294) 
2015-03-06

>  <Parent>  (294) 


>  <OneLetterCode>  (294) 


>  <SubcomponentList>  (294) 


>  <AmbiguousFlag>  (294) 
N

>  <InsertionCode>  (294) 


>  <InstanceId>  (294) 
4Q8Y_HQT_A_303

>  <ChemCompId>  (294) 
HQT

>  <PdbId>  (294) 
4Q8Y

>  <ResidueNumber>  (294) 
303

>  <InChI>  (294) 
InChI=1S/C9H7NOS/c11-10-6-5-7-3-1-2-4-8(7)9(10)12/h1-6,11H

>  <InChIKey>  (294) 
RTPXYUZLLYULJQ-UHFFFAOYSA-N

>  <SMILES>  (294) 
c1ccc2c(c1)C=CN(C2=S)O

>  <MissingHeavyAtoms>  (294) 
0

>  <Model>  (294) 
1

>  <AltIds>  (294) 


>  <pKI>  (294) 
2.64

>  <ChemblID>  (294) 
-

>  <standardized_canonical_smiles>  (294) 
On1ccc2ccccc2c1=S

$$$$
4Q8X_7FH_A_304
     RDKit          3D

 12 12  0  0  0  0  0  0  0  0999 V2000
   14.6090    1.0950   17.2000 S   0  0  0  0  0  0  0  0  0  0  0  0
   15.2590    2.2950   16.1860 C   0  0  0  0  0  0  0  0  0  0  0  0
   14.4300    3.2880   15.6600 C   0  0  0  0  0  0  0  0  0  0  0  0
   14.9450    4.2350   14.8090 C   0  0  0  0  0  0  0  0  0  0  0  0
   16.2610    4.1950   14.4630 C   0  0  0  0  0  0  0  0  0  0  0  0
   16.8020    5.1890   13.5760 C   0  0  0  0  0  0  0  0  0  0  0  0
   17.1880    6.2480   14.2790 F   0  0  0  0  0  0  0  0  0  0  0  0
   17.8460    4.6830   12.9270 F   0  0  0  0  0  0  0  0  0  0  0  0
   15.8710    5.5540   12.7000 F   0  0  0  0  0  0  0  0  0  0  0  0
   17.0910    3.2060   14.9920 C   0  0  0  0  0  0  0  0  0  0  0  0
   16.5790    2.2700   15.8610 N   0  0  0  0  0  0  0  0  0  0  0  0
   17.3500    1.3080   16.3190 O   0  0  0  0  0  0  0  0  0  0  0  0
  2  1  2  0
  3  2  1  0
 11  2  1  0
  4  3  2  0
  5  4  1  0
  6  5  1  0
 10  5  2  0
  7  6  1  0
  8  6  1  0
  9  6  1  0
 11 10  1  0
 12 11  1  0
A    1
S1
A    2
C1
A    3
C2
A    4
C3
A    5
C4
A    6
C6
A    7
F1
A    8
F2
A    9
F3
A   10
C5
A   11
N1
A   12
O1
M  END
>  <Id>  (295) 
4Q8X_7FH_A_304

>  <ChainId>  (295) 
A

>  <AsymId>  (295) 
E

>  <SeqNum>  (295) 
304

>  <Name>  (295) 
1-hydroxy-5-(trifluoromethyl)pyridine-2(1H)-thione

>  <SystematicName>  (295) 
1-oxidanyl-5-(trifluoromethyl)pyridine-2-thione

>  <Synonyms>  (295) 


>  <Type>  (295) 
NON-POLYMER

>  <Formula>  (295) 
C6 H4 F3 N O S

>  <ObservedFormula>  (295) 
S C6 F3 N O

>  <MolecularWeight>  (295) 
195.162

>  <ModifiedDate>  (295) 
2015-03-06

>  <Parent>  (295) 


>  <OneLetterCode>  (295) 


>  <SubcomponentList>  (295) 


>  <AmbiguousFlag>  (295) 
N

>  <InsertionCode>  (295) 


>  <InstanceId>  (295) 
4Q8X_7FH_A_304

>  <ChemCompId>  (295) 
7FH

>  <PdbId>  (295) 
4Q8X

>  <ResidueNumber>  (295) 
304

>  <InChI>  (295) 
InChI=1S/C6H4F3NOS/c7-6(8,9)4-1-2-5(12)10(11)3-4/h1-3,11H

>  <InChIKey>  (295) 
CWWMSAVJLUCBNA-UHFFFAOYSA-N

>  <SMILES>  (295) 
C1=CC(=S)N(C=C1C(F)(F)F)O

>  <MissingHeavyAtoms>  (295) 
0

>  <Model>  (295) 
1

>  <AltIds>  (295) 


>  <pKI>  (295) 
3.57

>  <ChemblID>  (295) 
-

>  <standardized_canonical_smiles>  (295) 
On1cc(C(F)(F)F)ccc1=S

$$$$
4BCW_TU0_A_302
     RDKit          3D

 14 14  0  0  0  0  0  0  0  0999 V2000
   -7.4380    7.1050   12.1310 Br  0  0  0  0  0  0  0  0  0  0  0  0
   -5.9200    6.2530   12.8710 C   0  0  0  0  0  0  0  0  0  0  0  0
   -4.6620    6.6880   12.4580 C   0  0  0  0  0  0  0  0  0  0  0  0
   -3.5150    6.0950   12.9780 C   0  0  0  0  0  0  0  0  0  0  0  0
   -6.0960    5.2280   13.8060 C   0  0  0  0  0  0  0  0  0  0  0  0
   -4.9850    4.6090   14.3670 C   0  0  0  0  0  0  0  0  0  0  0  0
   -3.6500    5.0750   13.9210 C   0  0  0  0  0  0  0  0  0  0  0  0
   -2.5330    4.5170   14.4180 O   0  0  0  0  0  0  0  0  0  0  0  0
   -5.0810    3.4810   15.3470 C   0  0  0  0  0  0  0  0  0  0  0  0
   -6.0920    3.2360   16.1850 C   0  0  0  0  0  0  0  0  0  0  0  0
   -6.0840    1.9800   17.1730 S   0  0  0  0  0  0  0  0  0  0  0  0
   -7.0460    0.9840   16.6210 O   0  0  0  0  0  0  0  0  0  0  0  0
   -6.5400    2.4350   18.5050 O   0  0  0  0  0  0  0  0  0  0  0  0
   -4.7010    1.4410   17.2720 O   0  0  0  0  0  0  0  0  0  0  0  0
  2  1  1  0
  3  2  2  0
  5  2  1  0
  4  3  1  0
  7  4  2  0
  6  5  2  0
  7  6  1  0
  9  6  1  0
  8  7  1  0
 10  9  2  0
 11 10  1  0
 12 11  1  0
 13 11  2  0
 14 11  2  0
A    1
BR
A    2
C4
A    3
C3
A    4
C2
A    5
C5
A    6
C6
A    7
C1
A    8
O13
A    9
C7
A   10
C8
A   11
S9
A   12
O10
A   13
O11
A   14
O12
M  END
>  <Id>  (296) 
4BCW_TU0_A_302

>  <ChainId>  (296) 
A

>  <AsymId>  (296) 
C

>  <SeqNum>  (296) 
302

>  <Name>  (296) 
(E)-2-(5-BROMO-2-HYDROXYPHENYL)ETHENESULFONIC ACID

>  <SystematicName>  (296) 
(E)-2-(5-bromanyl-2-oxidanyl-phenyl)ethenesulfonic acid

>  <Synonyms>  (296) 


>  <Type>  (296) 
non-polymer

>  <Formula>  (296) 
C8 H7 Br O4 S

>  <ObservedFormula>  (296) 
Br C8 S O4

>  <MolecularWeight>  (296) 
279.108

>  <ModifiedDate>  (296) 
2014-09-05

>  <Parent>  (296) 


>  <OneLetterCode>  (296) 


>  <SubcomponentList>  (296) 


>  <AmbiguousFlag>  (296) 
N

>  <InsertionCode>  (296) 


>  <InstanceId>  (296) 
4BCW_TU0_A_302

>  <ChemCompId>  (296) 
TU0

>  <PdbId>  (296) 
4BCW

>  <ResidueNumber>  (296) 
302

>  <InChI>  (296) 
InChI=1S/C8H7BrO4S/c9-7-1-2-8(10)6(5-7)3-4-14(11,12)13/h1-5,10H,(H,11,12,13)/b4-3+

>  <InChIKey>  (296) 
UHSWOANMCMMEKU-ONEGZZNKSA-N

>  <MissingHeavyAtoms>  (296) 
0

>  <Model>  (296) 
1

>  <AltIds>  (296) 


>  <pKI>  (296) 
4.0

>  <ChemblID>  (296) 
-

>  <standardized_canonical_smiles>  (296) 
O=S(=O)(O)/C=C/c1cc(Br)ccc1O

$$$$
6HX5_GXE_A_302
     RDKit          3D

  7  7  0  0  0  0  0  0  0  0999 V2000
   -4.9330   -0.0780   16.3220 Se  0  0  0  0  0  2  0  0  0  0  0  0
   -5.4300    1.5020   16.0820 C   0  0  0  0  0  0  0  0  0  0  0  0
   -6.4200    2.1590   16.8210 C   0  0  0  0  0  0  0  0  0  0  0  0
   -6.7720    3.4960   16.5480 C   0  0  0  0  0  0  0  0  0  0  0  0
   -6.2620    4.2370   15.4890 C   0  0  0  0  0  0  0  0  0  0  0  0
   -5.3200    3.6320   14.7120 C   0  0  0  0  0  0  0  0  0  0  0  0
   -4.9260    2.3140   15.0200 C   0  0  0  0  0  0  0  0  0  0  0  0
  2  1  1  0
  3  2  2  0
  7  2  1  0
  4  3  1  0
  5  4  2  0
  6  5  1  0
  7  6  2  0
A    1
SE
A    2
C
A    3
C1
A    4
C2
A    5
C3
A    6
C4
A    7
C5
M  END
>  <Id>  (297) 
6HX5_GXE_A_302

>  <ChainId>  (297) 
A

>  <AsymId>  (297) 
C

>  <SeqNum>  (297) 
302

>  <Name>  (297) 
benzeneselenol

>  <SystematicName>  (297) 
benzeneselenol

>  <Synonyms>  (297) 


>  <Type>  (297) 
NON-POLYMER

>  <Formula>  (297) 
C6 H6 Se

>  <ObservedFormula>  (297) 
Se C6

>  <MolecularWeight>  (297) 
157.072

>  <ModifiedDate>  (297) 
2018-12-21

>  <Parent>  (297) 


>  <OneLetterCode>  (297) 


>  <SubcomponentList>  (297) 


>  <AmbiguousFlag>  (297) 
N

>  <InsertionCode>  (297) 


>  <InstanceId>  (297) 
6HX5_GXE_A_302

>  <ChemCompId>  (297) 
GXE

>  <PdbId>  (297) 
6HX5

>  <ResidueNumber>  (297) 
302

>  <InChI>  (297) 
InChI=1S/C6H6Se/c7-6-4-2-1-3-5-6/h1-5,7H

>  <InChIKey>  (297) 
WDODWFPDZYSKIA-UHFFFAOYSA-N

>  <SMILES>  (297) 
c1ccc(cc1)[SeH]

>  <MissingHeavyAtoms>  (297) 
0

>  <Model>  (297) 
1

>  <AltIds>  (297) 


>  <pKI>  (297) 
5.66

>  <ChemblID>  (297) 
-

>  <standardized_canonical_smiles>  (297) 
[SeH]c1ccccc1

$$$$
6GXE_FFH_A_303
     RDKit          3D

 21 22  0  0  0  0  0  0  0  0999 V2000
   33.3210   -0.5320   12.7830 C   0  0  0  0  0  0  0  0  0  0  0  0
   33.4000    1.8280   12.2550 C   0  0  0  0  0  0  0  0  0  0  0  0
   34.6520    0.2290   10.9230 C   0  0  0  0  0  0  0  0  0  0  0  0
   35.6580   -1.1600    9.1010 C   0  0  0  0  0  0  0  0  0  0  0  0
   36.4990   -1.8270    6.8880 C   0  0  0  0  0  0  0  0  0  0  0  0
   36.1930   -3.1810    7.1960 C   0  0  0  0  0  0  0  0  0  0  0  0
   36.1900   -4.1220    6.2080 C   0  0  0  0  0  0  0  0  0  0  0  0
   36.4990   -3.7330    4.8510 C   0  0  0  0  0  0  0  0  0  0  0  0
   36.7810   -1.4400    5.5750 C   0  0  0  0  0  0  0  0  0  0  0  0
   35.1930   -2.2710    9.4810 O   0  0  0  0  0  0  0  0  0  0  0  0
   35.4460    0.0090    9.8150 N   0  0  0  0  0  0  0  0  0  0  0  0
   34.2540    1.5520   11.2000 C   0  0  0  0  0  0  0  0  0  0  0  0
   32.9270    0.7970   13.0750 C   0  0  0  0  0  0  0  0  0  0  0  0
   31.8920    1.1450   14.3290 S   0  0  0  0  0  0  0  0  0  0  0  0
   32.6830    1.4480   15.6990 N   0  0  0  0  0  0  0  0  0  0  0  0
   31.1050   -0.0960   14.3850 O   0  0  0  0  0  0  0  0  0  0  0  0
   31.1290    2.3280   13.9790 O   0  0  0  0  0  0  0  0  0  0  0  0
   34.1610   -0.8290   11.7320 C   0  0  0  0  0  0  0  0  0  0  0  0
   36.3860   -0.9160    7.9330 N   0  0  0  0  0  0  0  0  0  0  0  0
   36.7900   -2.3920    4.5520 C   0  0  0  0  0  0  0  0  0  0  0  0
   36.4930   -4.7680    3.9040 O   0  0  0  0  0  0  0  0  0  0  0  0
 13  1  2  0
 18  1  1  0
 12  2  2  0
 13  2  1  0
 11  3  1  0
 12  3  1  0
 18  3  2  0
 10  4  2  0
 11  4  1  0
 19  4  1  0
  6  5  2  0
  9  5  1  0
 19  5  1  0
  7  6  1  0
  8  7  2  0
 20  8  1  0
 21  8  1  0
 20  9  2  0
 14 13  1  0
 15 14  1  0
 16 14  2  0
 17 14  2  0
A    1
C1
A    2
C2
A    3
C4
A    4
C9
A    5
C11
A    6
C12
A    7
C13
A    8
C14
A    9
C16
A   10
O9
A   11
N4
A   12
C3
A   13
C
A   14
S8
A   15
N10
A   16
O6
A   17
O7
A   18
C5
A   19
N9
A   20
C15
A   21
O14
M  END
>  <Id>  (298) 
6GXE_FFH_A_303

>  <ChainId>  (298) 
A

>  <AsymId>  (298) 
D

>  <SeqNum>  (298) 
303

>  <Name>  (298) 
3-[2-[2-[2-[2-(aminomethyloxy)ethoxy]ethoxy]ethoxy]ethoxy]-~{N}-[4-[4-[(4-sulfamoylphenyl)carbamoylamino]phenoxy]butyl]propanamide

>  <SystematicName>  (298) 
3-[2-[2-[2-[2-(aminomethyloxy)ethoxy]ethoxy]ethoxy]ethoxy]-~{N}-[4-[4-[(4-sulfamoylphenyl)carbamoylamino]phenoxy]butyl]propanamide

>  <Synonyms>  (298) 


>  <Type>  (298) 
NON-POLYMER

>  <Formula>  (298) 
C29 H45 N5 O10 S

>  <ObservedFormula>  (298) 
C13 S N3 O4

>  <MolecularWeight>  (298) 
655.76

>  <ModifiedDate>  (298) 
2019-05-03

>  <Parent>  (298) 


>  <OneLetterCode>  (298) 


>  <SubcomponentList>  (298) 


>  <AmbiguousFlag>  (298) 
N

>  <InsertionCode>  (298) 


>  <InstanceId>  (298) 
6GXE_FFH_A_303

>  <ChemCompId>  (298) 
FFH

>  <PdbId>  (298) 
6GXE

>  <ResidueNumber>  (298) 
303

>  <InChI>  (298) 
InChI=1S/C29H45N5O10S/c30-23-43-22-21-42-20-19-41-18-17-40-16-15-39-14-11-28(35)32-12-1-2-13-44-26-7-3-24(4-8-26)33-29(36)34-25-5-9-27(10-6-25)45(31,37)38/h3-10H,1-2,11-23,30H2,(H,32,35)(H2,31,37,38)(H2,33,34,36)

>  <InChIKey>  (298) 
UDWQBPJNUHSQMR-UHFFFAOYSA-N

>  <SMILES>  (298) 
c1cc(ccc1NC(=O)Nc2ccc(cc2)S(=O)(=O)N)OCCCCNC(=O)CCOCCOCCOCCOCCOCN

>  <MissingHeavyAtoms>  (298) 
24

>  <Model>  (298) 
1

>  <AltIds>  (298) 


>  <pKI>  (298) 
5.66

>  <ChemblID>  (298) 
-

>  <standardized_canonical_smiles>  (298) 
[SeH]c1ccccc1

$$$$
6GXE_DMS_A_304
     RDKit          3D

  4  3  0  0  0  0  0  0  0  0999 V2000
   22.6350   -9.7130   15.1580 S   0  0  0  0  0  0  0  0  0  0  0  0
   23.0270   -9.4000   16.6390 O   0  0  0  0  0  0  0  0  0  0  0  0
   23.7500   -8.8270   14.2170 C   0  0  0  0  0  0  0  0  0  0  0  0
   23.1690  -11.2970   14.7390 C   0  0  0  0  0  0  0  0  0  0  0  0
  2  1  2  0
  3  1  1  0
  4  1  1  0
A    1
S
A    2
O
A    3
C1
A    4
C2
M  END
>  <Id>  (299) 
6GXE_DMS_A_304

>  <ChainId>  (299) 
A

>  <AsymId>  (299) 
E

>  <SeqNum>  (299) 
304

>  <Name>  (299) 
DIMETHYL SULFOXIDE

>  <SystematicName>  (299) 
methylsulfinylmethane

>  <Synonyms>  (299) 


>  <Type>  (299) 
NON-POLYMER

>  <Formula>  (299) 
C2 H6 O S

>  <ObservedFormula>  (299) 
S C2 O

>  <MolecularWeight>  (299) 
78.133

>  <ModifiedDate>  (299) 
2011-06-04

>  <Parent>  (299) 


>  <OneLetterCode>  (299) 


>  <SubcomponentList>  (299) 


>  <AmbiguousFlag>  (299) 
N

>  <InsertionCode>  (299) 


>  <InstanceId>  (299) 
6GXE_DMS_A_304

>  <ChemCompId>  (299) 
DMS

>  <PdbId>  (299) 
6GXE

>  <ResidueNumber>  (299) 
304

>  <InChI>  (299) 
InChI=1S/C2H6OS/c1-4(2)3/h1-2H3

>  <InChIKey>  (299) 
IAZDPXIOMUYVGZ-UHFFFAOYSA-N

>  <SMILES>  (299) 
CS(=O)C

>  <MissingHeavyAtoms>  (299) 
0

>  <Model>  (299) 
1

>  <AltIds>  (299) 


>  <pKI>  (299) 
5.66

>  <ChemblID>  (299) 
-

>  <standardized_canonical_smiles>  (299) 
[SeH]c1ccccc1

$$$$
4ZWY_4SN_A_302
     RDKit          3D

 31 31  0  0  0  0  0  0  0  0999 V2000
   -0.8200    8.4150   12.3860 C   0  0  0  0  0  0  0  0  0  0  0  0
   -0.1180    9.7120   12.5470 C   0  0  0  0  0  0  0  0  0  0  0  0
    0.6690    9.8930   11.3420 C   0  0  0  0  0  0  0  0  0  0  0  0
    1.7710    8.9150   11.1380 C   0  0  0  0  0  0  0  0  0  0  0  0
    1.9030    6.4290   10.9680 C   0  0  0  0  0  0  0  0  0  0  0  0
   -1.1590   10.7270   12.5480 O   0  0  0  0  0  0  0  0  0  0  0  0
   -0.0850   12.2220   14.4010 C   0  0  0  0  0  0  0  0  0  0  0  0
   -1.2610   11.6910   13.5510 C   0  0  0  0  0  0  0  0  0  0  0  0
   -2.3340   12.1370   13.6710 O   0  0  0  0  0  0  0  0  0  0  0  0
   -0.2330    9.8230   10.1540 O   0  0  0  0  0  0  0  0  0  0  0  0
    2.2200    8.8280    9.7660 O   0  0  0  0  0  0  0  0  0  0  0  0
    1.4590    7.5030   11.7110 C   0  0  0  0  0  0  0  0  0  0  0  0
    2.8340    6.3100   11.9850 O   0  0  0  0  0  0  0  0  0  0  0  0
    3.8530    5.3800   11.8680 C   0  0  0  0  0  0  0  0  0  0  0  0
    3.9290    4.6480   10.9750 O   0  0  0  0  0  0  0  0  0  0  0  0
    4.8710    5.4220   13.0020 C   0  0  0  0  0  0  0  0  0  0  0  0
    0.0400    7.3020   12.2040 O   0  0  0  0  0  0  0  0  0  0  0  0
   -1.6180    7.9930   13.9240 S   0  0  0  0  0  0  0  0  0  0  0  0
   -0.6150    8.3780   15.0710 O   0  0  0  0  0  0  0  0  0  0  0  0
   -2.8860    8.9790   13.9790 O   0  0  0  0  0  0  0  0  0  0  0  0
   -2.1240    6.3780   13.9770 N   0  0  0  0  0  0  0  0  0  0  0  0
   -3.1360    6.1830   12.9660 C   0  0  0  0  0  0  0  0  0  0  0  0
   -4.5080    5.9180   13.5730 C   0  0  0  0  0  0  0  0  0  0  0  0
   -4.5310    4.8060   14.6520 C   0  0  0  0  0  0  0  0  0  0  0  0
   -5.9720    4.5640   15.1590 C   0  0  0  0  0  0  0  0  0  0  0  0
   -6.0520    3.6600   16.4080 C   0  0  0  0  0  0  0  0  0  0  0  0
   -5.7060    2.3980   15.9420 O   0  0  0  0  0  0  0  0  0  0  0  0
   -6.0450    1.1000   16.8390 S   0  0  0  0  0  0  0  0  0  0  0  0
   -7.3690    0.9940   16.6120 O   0  0  0  0  0  0  0  0  0  0  0  0
   -5.2560    1.3870   18.1170 O   0  0  0  0  0  0  0  0  0  0  0  0
   -5.3420   -0.2780   16.2830 N   0  0  0  0  0  0  0  0  0  0  0  0
  2  1  1  0
 17  1  1  0
 18  1  1  0
  3  2  1  0
  6  2  1  0
  4  3  1  0
 10  3  1  0
 11  4  1  0
 12  4  1  0
 12  5  1  0
 13  5  1  0
  8  6  1  0
  8  7  1  0
  9  8  2  0
 17 12  1  0
 14 13  1  0
 15 14  2  0
 16 14  1  0
 19 18  2  0
 20 18  2  0
 21 18  1  0
 22 21  1  0
 23 22  1  0
 24 23  1  0
 25 24  1  0
 26 25  1  0
 27 26  1  0
 28 27  1  0
 29 28  2  0
 30 28  2  0
 31 28  1  0
A    1
C1
A    2
C2
A    3
C3
A    4
C4
A    5
C6
A    6
O2
A    7
CBK
A    8
CBJ
A    9
OBL
A   10
O3
A   11
O4
A   12
C5
A   13
O6
A   14
CAY
A   15
OBE
A   16
CBA
A   17
O5
A   18
SAL
A   19
OAM
A   20
OAN
A   21
NAK
A   22
CAJ
A   23
CAI
A   24
CAH
A   25
CAG
A   26
CAF
A   27
OAA
A   28
SAB
A   29
OAC
A   30
OAD
A   31
NAE
M  END
>  <Id>  (300) 
4ZWY_4SN_A_302

>  <ChainId>  (300) 
A

>  <AsymId>  (300) 
C

>  <SeqNum>  (300) 
302

>  <Name>  (300) 
(6S)-1,3,4,5-tetra-O-acetyl-2,6-anhydro-6-{[5-(sulfamoyloxy)pentyl]sulfamoyl}-L-altritol

>  <SystematicName>  (300) 
[(2S,3R,5R,6S)-3,4,5-triacetyloxy-6-(5-sulfamoyloxypentylsulfamoyl)oxan-2-yl]methyl ethanoate

>  <Synonyms>  (300) 


>  <Type>  (300) 
NON-POLYMER

>  <Formula>  (300) 
C19 H32 N2 O14 S2

>  <ObservedFormula>  (300) 
C15 S2 N2 O12

>  <MolecularWeight>  (300) 
576.592

>  <ModifiedDate>  (300) 
2015-07-31

>  <Parent>  (300) 


>  <OneLetterCode>  (300) 


>  <SubcomponentList>  (300) 


>  <AmbiguousFlag>  (300) 
N

>  <InsertionCode>  (300) 


>  <InstanceId>  (300) 
4ZWY_4SN_A_302

>  <ChemCompId>  (300) 
4SN

>  <PdbId>  (300) 
4ZWY

>  <ResidueNumber>  (300) 
302

>  <InChI>  (300) 
InChI=1S/C19H32N2O14S2/c1-11(22)30-10-15-16(32-12(2)23)17(33-13(3)24)18(34-14(4)25)19(35-15)36(26,27)21-8-6-5-7-9-31-37(20,28)29/h15-19,21H,5-10H2,1-4H3,(H2,20,28,29)/t15-,16+,17+,18+,19-/m0/s1

>  <InChIKey>  (300) 
CXIJBWKOZIQDPV-VHPHOLNESA-N

>  <SMILES>  (300) 
CC(=O)OC[C@H]1[C@H](C([C@H]([C@@H](O1)S(=O)(=O)NCCCCCOS(=O)(=O)N)OC(=O)C)OC(=O)C)OC(=O)C

>  <MissingHeavyAtoms>  (300) 
6

>  <Model>  (300) 
1

>  <AltIds>  (300) 


>  <pKI>  (300) 
8.0

>  <ChemblID>  (300) 
-

>  <standardized_canonical_smiles>  (300) 
CC(=O)OC[C@@H]1O[C@@H](S(=O)(=O)NCCCCCOS(N)(=O)=O)[C@H](OC(C)=O)[C@H](O)[C@@H]1O

$$$$
4ZWX_5KZ_A_304
     RDKit          3D

 37 37  0  0  0  0  0  0  0  0999 V2000
    3.3710    9.5540   81.8260 C   0  0  0  0  0  0  0  0  0  0  0  0
    3.9330   10.9280   81.9430 C   0  0  0  0  0  0  0  0  0  0  0  0
    5.2910   11.1350   81.3920 C   0  0  0  0  0  0  0  0  0  0  0  0
    5.9910   10.0410   80.6100 C   0  0  0  0  0  0  0  0  0  0  0  0
    6.1880    7.6350   80.5570 C   0  0  0  0  0  0  0  0  0  0  0  0
    2.9510   11.9130   81.4700 O   0  0  0  0  0  0  0  0  0  0  0  0
    1.2930   13.6390   82.2750 C   0  0  0  0  0  0  0  0  0  0  0  0
    2.6190   12.8780   82.4450 C   0  0  0  0  0  0  0  0  0  0  0  0
    3.3500   13.0990   83.3600 O   0  0  0  0  0  0  0  0  0  0  0  0
    5.5160   12.5710   80.9980 O   0  0  0  0  0  0  0  0  0  0  0  0
    5.2070   13.2990   79.8170 C   0  0  0  0  0  0  0  0  0  0  0  0
    4.5420   12.9070   78.9150 O   0  0  0  0  0  0  0  0  0  0  0  0
    5.8060   14.7220   79.7690 C   0  0  0  0  0  0  0  0  0  0  0  0
    6.3920   10.3810   79.2740 O   0  0  0  0  0  0  0  0  0  0  0  0
    7.7950   10.4040   79.1320 C   0  0  0  0  0  0  0  0  0  0  0  0
    8.4820   10.3800   80.1050 O   0  0  0  0  0  0  0  0  0  0  0  0
    8.4180   10.4480   77.7230 C   0  0  0  0  0  0  0  0  0  0  0  0
    5.2400    8.6820   80.5600 C   0  0  0  0  0  0  0  0  0  0  0  0
    7.0700    7.8880   81.6460 O   0  0  0  0  0  0  0  0  0  0  0  0
    8.1710    7.0050   81.6740 C   0  0  0  0  0  0  0  0  0  0  0  0
    9.0530    7.1100   82.4700 O   0  0  0  0  0  0  0  0  0  0  0  0
    8.1890    5.8940   80.6290 C   0  0  0  0  0  0  0  0  0  0  0  0
    4.4720    8.6180   81.8790 O   0  0  0  0  0  0  0  0  0  0  0  0
    2.5130    9.2550   83.3790 S   0  0  0  0  0  0  0  0  0  0  0  0
    3.6480    9.5560   84.5160 O   0  0  0  0  0  0  0  0  0  0  0  0
    1.1690   10.2140   83.4360 O   0  0  0  0  0  0  0  0  0  0  0  0
    2.0760    7.5780   83.3790 N   0  0  0  0  0  0  0  0  0  0  0  0
    0.9790    7.4380   82.3940 C   0  0  0  0  0  0  0  0  0  0  0  0
   -0.3540    7.3180   83.1840 C   0  0  0  0  0  0  0  0  0  0  0  0
   -0.1850    6.2650   84.3200 C   0  0  0  0  0  0  0  0  0  0  0  0
   -1.5530    5.6580   84.6820 C   0  0  0  0  0  0  0  0  0  0  0  0
   -1.4620    4.7510   85.9320 C   0  0  0  0  0  0  0  0  0  0  0  0
   -1.0070    3.4990   85.4580 O   0  0  0  0  0  0  0  0  0  0  0  0
   -1.4440    2.1660   86.3500 S   0  0  0  0  0  0  0  0  0  0  0  0
   -2.8720    2.3210   86.0500 O   0  0  0  0  0  0  0  0  0  0  0  0
   -0.6350    2.5320   87.6970 O   0  0  0  0  0  0  0  0  0  0  0  0
   -0.7150    0.8550   85.5480 N   0  0  0  0  0  0  0  0  0  0  0  0
  2  1  1  0
 23  1  1  0
 24  1  1  0
  3  2  1  0
  6  2  1  0
  4  3  1  0
 10  3  1  0
 14  4  1  0
 18  4  1  0
 18  5  1  0
 19  5  1  0
  8  6  1  0
  8  7  1  0
  9  8  2  0
 11 10  1  0
 12 11  2  0
 13 11  1  0
 15 14  1  0
 16 15  2  0
 17 15  1  0
 23 18  1  0
 20 19  1  0
 21 20  2  0
 22 20  1  0
 25 24  2  0
 26 24  2  0
 27 24  1  0
 28 27  1  0
 29 28  1  0
 30 29  1  0
 31 30  1  0
 32 31  1  0
 33 32  1  0
 34 33  1  0
 35 34  2  0
 36 34  2  0
 37 34  1  0
A    1
C1
A    2
C2
A    3
C3
A    4
C4
A    5
C6
A    6
O2
A    7
CBK
A    8
CBJ
A    9
OBL
A   10
O3
A   11
CBC
A   12
OBH
A   13
CBD
A   14
O4
A   15
CAZ
A   16
OBF
A   17
CBB
A   18
C5
A   19
O6
A   20
CAY
A   21
OBE
A   22
CBA
A   23
O5
A   24
SAL
A   25
OAM
A   26
OAN
A   27
NAK
A   28
CAJ
A   29
CAI
A   30
CAH
A   31
CAG
A   32
CAF
A   33
OAA
A   34
SAB
A   35
OAC
A   36
OAD
A   37
NAE
M  END
>  <Id>  (301) 
4ZWX_5KZ_A_304

>  <ChainId>  (301) 
A

>  <AsymId>  (301) 
E

>  <SeqNum>  (301) 
304

>  <Name>  (301) 
(1S)-2,3,4,6-tetra-O-acetyl-1,5-anhydro-1-{[5-(sulfamoyloxy)pentyl]sulfamoyl}-D-allitol

>  <SystematicName>  (301) 
[(2R,3R,4R,5R,6S)-3,4,5-triacetyloxy-6-(5-sulfamoyloxypentylsulfamoyl)oxan-2-yl]methyl ethanoate

>  <Synonyms>  (301) 


>  <Type>  (301) 
NON-POLYMER

>  <Formula>  (301) 
C19 H32 N2 O14 S2

>  <ObservedFormula>  (301) 
C19 S2 N2 O14

>  <MolecularWeight>  (301) 
576.592

>  <ModifiedDate>  (301) 
2015-10-23

>  <Parent>  (301) 


>  <OneLetterCode>  (301) 


>  <SubcomponentList>  (301) 


>  <AmbiguousFlag>  (301) 
N

>  <InsertionCode>  (301) 


>  <InstanceId>  (301) 
4ZWX_5KZ_A_304

>  <ChemCompId>  (301) 
5KZ

>  <PdbId>  (301) 
4ZWX

>  <ResidueNumber>  (301) 
304

>  <InChI>  (301) 
InChI=1S/C19H32N2O14S2/c1-11(22)30-10-15-16(32-12(2)23)17(33-13(3)24)18(34-14(4)25)19(35-15)36(26,27)21-8-6-5-7-9-31-37(20,28)29/h15-19,21H,5-10H2,1-4H3,(H2,20,28,29)/t15-,16-,17-,18-,19+/m1/s1

>  <InChIKey>  (301) 
CXIJBWKOZIQDPV-NNIGNNQHSA-N

>  <SMILES>  (301) 
CC(=O)OC[C@@H]1[C@H]([C@H]([C@H]([C@@H](O1)S(=O)(=O)NCCCCCOS(=O)(=O)N)OC(=O)C)OC(=O)C)OC(=O)C

>  <MissingHeavyAtoms>  (301) 
0

>  <Model>  (301) 
1

>  <AltIds>  (301) 


>  <pKI>  (301) 
8.7

>  <ChemblID>  (301) 
-

>  <standardized_canonical_smiles>  (301) 
CC(=O)OC[C@H]1O[C@@H](S(=O)(=O)NCCCCCOS(N)(=O)=O)[C@H](OC(C)=O)[C@H](OC(C)=O)[C@@H]1OC(C)=O

$$$$
5J8Z_FC4_A_303
     RDKit          3D

 32 34  0  0  0  0  0  0  0  0999 V2000
   -5.3970   12.3650   10.9580 C   0  0  0  0  0  0  0  0  0  0  0  0
   -6.4180   12.3420   10.0140 C   0  0  0  0  0  0  0  0  0  0  0  0
   -6.3090   11.5070    8.9200 C   0  0  0  0  0  0  0  0  0  0  0  0
   -7.5760   11.4540    7.7440 Cl  0  0  0  0  0  0  0  0  0  0  0  0
   -5.1990   10.7030    8.7560 C   0  0  0  0  0  0  0  0  0  0  0  0
   -4.1830   10.7380    9.7050 C   0  0  0  0  0  0  0  0  0  0  0  0
   -4.2680   11.5650   10.8200 C   0  0  0  0  0  0  0  0  0  0  0  0
   -3.2300   11.5070   11.8750 C   0  0  0  0  0  0  0  0  0  0  0  0
   -3.0610   10.2560   12.4090 N   0  0  0  0  0  0  0  0  0  0  0  0
   -2.4940   12.5820   12.2670 C   0  0  0  0  0  0  0  0  0  0  0  0
   -2.8000   13.8380   11.6790 C   0  0  0  0  0  0  0  0  0  0  0  0
   -3.0480   14.8570   11.2060 N   0  0  0  0  0  0  0  0  0  0  0  0
   -1.4840   12.4020   13.2800 C   0  0  0  0  0  0  0  0  0  0  0  0
   -0.7640   13.3060   13.7280 O   0  0  0  0  0  0  0  0  0  0  0  0
   -1.3650   11.1150   13.7630 N   0  0  0  0  0  0  0  0  0  0  0  0
   -2.1430   10.0880   13.3300 C   0  0  0  0  0  0  0  0  0  0  0  0
   -1.8490    8.5210   14.1050 S   0  0  0  0  0  0  0  0  0  0  0  0
   -2.4950    7.8990   11.4640 C   0  0  0  0  0  0  0  0  0  0  0  0
   -2.2030    7.2620   12.8240 C   0  0  0  0  0  0  0  0  0  0  0  0
   -3.3760    6.4080   13.3070 C   0  0  0  0  0  0  0  0  0  0  0  0
   -3.0380    5.1430   13.6330 N   0  0  0  0  0  0  0  0  0  0  0  0
   -5.7850    3.3060   15.3390 C   0  0  0  0  0  0  0  0  0  0  0  0
   -5.1390    4.2950   14.6240 C   0  0  0  0  0  0  0  0  0  0  0  0
   -3.7660    4.2210   14.4120 C   0  0  0  0  0  0  0  0  0  0  0  0
   -4.5000    6.8510   13.3750 O   0  0  0  0  0  0  0  0  0  0  0  0
   -3.0530    3.1470   14.9320 C   0  0  0  0  0  0  0  0  0  0  0  0
   -3.7070    2.1660   15.6500 C   0  0  0  0  0  0  0  0  0  0  0  0
   -5.0700    2.2420   15.8520 C   0  0  0  0  0  0  0  0  0  0  0  0
   -5.9010    0.9680   16.7340 S   0  0  0  0  0  0  0  0  0  0  0  0
   -5.4550    1.1040   18.0870 O   0  0  0  0  0  0  0  0  0  0  0  0
   -7.3080    1.1070   16.5200 O   0  0  0  0  0  0  0  0  0  0  0  0
   -5.4180   -0.4580   16.2000 N   0  0  0  0  0  0  0  0  0  0  0  0
  2  1  2  0
  7  1  1  0
  3  2  1  0
  4  3  1  0
  5  3  2  0
  6  5  1  0
  7  6  2  0
  8  7  1  0
  9  8  1  0
 10  8  2  0
 16  9  2  0
 11 10  1  0
 13 10  1  0
 12 11  3  0
 14 13  2  0
 15 13  1  0
 16 15  1  0
 17 16  1  0
 19 17  1  0
 19 18  1  0
 20 19  1  0
 21 20  1  0
 25 20  2  0
 24 21  1  0
 23 22  2  0
 28 22  1  0
 24 23  1  0
 26 24  2  0
 27 26  1  0
 28 27  2  0
 29 28  1  0
 30 29  2  0
 31 29  2  0
 32 29  1  0
A    1
C16
A    2
C17
A    3
C18
A    4
CL
A    5
C19
A    6
C20
A    7
C15
A    8
C13
A    9
N4
A   10
C12
A   11
C14
A   12
N5
A   13
C11
A   14
O4
A   15
N3
A   16
C10
A   17
S2
A   18
C9
A   19
C8
A   20
C7
A   21
N2
A   22
C6
A   23
C5
A   24
C4
A   25
O3
A   26
C3
A   27
C2
A   28
C1
A   29
S1
A   30
O2
A   31
O1
A   32
N1
M  END
>  <Id>  (302) 
5J8Z_FC4_A_303

>  <ChainId>  (302) 
A

>  <AsymId>  (302) 
D

>  <SeqNum>  (302) 
303

>  <Name>  (302) 
(2R)-2-{[4-(4-chlorophenyl)-5-cyano-6-oxo-1,6-dihydropyrimidin-2-yl]sulfanyl}-N-(4-sulfamoylphenyl)propanamide

>  <SystematicName>  (302) 
(2~{R})-2-[[4-(4-chlorophenyl)-5-cyano-6-oxidanylidene-1~{H}-pyrimidin-2-yl]sulfanyl]-~{N}-(4-sulfamoylphenyl)propanamide

>  <Synonyms>  (302) 


>  <Type>  (302) 
NON-POLYMER

>  <Formula>  (302) 
C20 H16 Cl N5 O4 S2

>  <ObservedFormula>  (302) 
C20 S2 Cl N5 O4

>  <MolecularWeight>  (302) 
489.955

>  <ModifiedDate>  (302) 
2016-06-24

>  <Parent>  (302) 


>  <OneLetterCode>  (302) 


>  <SubcomponentList>  (302) 


>  <AmbiguousFlag>  (302) 
N

>  <InsertionCode>  (302) 


>  <InstanceId>  (302) 
5J8Z_FC4_A_303

>  <ChemCompId>  (302) 
FC4

>  <PdbId>  (302) 
5J8Z

>  <ResidueNumber>  (302) 
303

>  <InChI>  (302) 
InChI=1S/C20H16ClN5O4S2/c1-11(18(27)24-14-6-8-15(9-7-14)32(23,29)30)31-20-25-17(16(10-22)19(28)26-20)12-2-4-13(21)5-3-12/h2-9,11H,1H3,(H,24,27)(H2,23,29,30)(H,25,26,28)/t11-/m1/s1

>  <InChIKey>  (302) 
JDIGFAGHWNBGPU-LLVKDONJSA-N

>  <SMILES>  (302) 
C[C@H](C(=O)Nc1ccc(cc1)S(=O)(=O)N)SC2=NC(=C(C(=O)N2)C#N)c3ccc(cc3)Cl

>  <MissingHeavyAtoms>  (302) 
0

>  <Model>  (302) 
1

>  <AltIds>  (302) 


>  <pKI>  (302) 
8.3

>  <ChemblID>  (302) 
-

>  <standardized_canonical_smiles>  (302) 
C[C@@H](Sc1nc(-c2ccc(Cl)cc2)c(C#N)c(=O)[nH]1)C(=O)Nc1ccc(S(N)(=O)=O)cc1

$$$$
3HKT_2SD_A_300
     RDKit          3D

 26 27  0  0  0  0  0  0  0  0999 V2000
   18.6160    6.2680    9.9040 O   0  0  0  0  0  0  0  0  0  0  0  0
   17.5860    7.2550    9.8730 C   0  0  0  0  0  0  0  0  0  0  0  0
   18.0340    8.5950   10.5410 C   0  0  0  0  0  0  0  0  0  0  0  0
   18.9690    9.3230    9.7020 O   0  0  0  0  0  0  0  0  0  0  0  0
   16.8300    9.4860   11.0430 C   0  0  0  0  0  0  0  0  0  0  0  0
   16.5730   10.6290   10.2200 O   0  0  0  0  0  0  0  0  0  0  0  0
   15.5080    8.6570   11.3410 C   0  0  0  0  0  0  0  0  0  0  0  0
   14.2380    9.4370   11.5920 C   0  0  0  0  0  0  0  0  0  0  0  0
   14.0850   10.4020   10.5420 O   0  0  0  0  0  0  0  0  0  0  0  0
   15.2840    7.5610   10.3750 O   0  0  0  0  0  0  0  0  0  0  0  0
   16.3850    6.6540   10.5810 C   0  0  0  0  0  0  0  0  0  0  0  0
   16.5590    6.6710   12.0260 O   0  0  0  0  0  0  0  0  0  0  0  0
   17.1300    5.6170   12.8940 C   0  0  0  0  0  0  0  0  0  0  0  0
   16.9410    4.1370   12.5070 C   0  0  0  0  0  0  0  0  0  0  0  0
   16.2950    3.9570   11.2230 O   0  0  0  0  0  0  0  0  0  0  0  0
   16.3460    3.2370   13.6160 C   0  0  0  0  0  0  0  0  0  0  0  0
   16.9750    1.9390   13.4230 O   0  0  0  0  0  0  0  0  0  0  0  0
   16.6390    3.7160   15.0910 C   0  0  0  0  0  0  0  0  0  0  0  0
   15.6470    2.8520   16.3560 S   0  0  0  0  0  0  0  0  0  0  0  0
   16.1970    3.2110   17.7180 O   0  0  0  0  0  0  0  0  0  0  0  0
   14.1850    3.2210   16.2350 O   0  0  0  0  0  0  0  0  0  0  0  0
   15.8320    1.2220   16.0780 N   0  0  0  0  0  0  0  0  0  0  0  0
   16.5320    5.1280   15.3730 O   0  0  0  0  0  0  0  0  0  0  0  0
   16.7720    6.0940   14.3390 C   0  0  0  0  0  0  0  0  0  0  0  0
   15.4640    6.8500   14.2580 C   0  0  0  0  0  0  0  0  0  0  0  0
   15.3950    7.7350   15.3230 O   0  0  0  0  0  0  0  0  0  0  0  0
  2  1  1  0
  3  2  1  0
 11  2  1  0
  4  3  1  0
  5  3  1  0
  6  5  1  0
  7  5  1  0
  8  7  1  0
 10  7  1  0
  9  8  1  0
 11 10  1  0
 12 11  1  0
 13 12  1  0
 14 13  1  0
 24 13  1  0
 15 14  1  0
 16 14  1  0
 17 16  1  0
 18 16  1  0
 19 18  1  0
 23 18  1  0
 20 19  2  0
 21 19  2  0
 22 19  1  0
 24 23  1  0
 25 24  1  0
 26 25  1  0
A    1
O8
A    2
C8
A    3
C9
A    4
O9
A    5
C10
A    6
O10
A    7
C11
A    8
C12
A    9
O12
A   10
O11
A   11
C7
A   12
O4
A   13
C4
A   14
C3
A   15
O3
A   16
C2
A   17
O2
A   18
C1
A   19
SAI
A   20
OAM
A   21
OAE
A   22
NAJ
A   23
O5
A   24
C5
A   25
C6
A   26
O6
M  END
>  <Id>  (303) 
3HKT_2SD_A_300

>  <ChainId>  (303) 
A

>  <AsymId>  (303) 
C

>  <SeqNum>  (303) 
300

>  <Name>  (303) 
(2S,3R,4R,5R,6R)-3,4-dihydroxy-6-(hydroxymethyl)-5-[(2R,3R,4S,5R,6R)-3,4,5-trihydroxy-6-(hydroxymethyl)oxan-2-yl]oxy-oxane-2-sulfonamide

>  <SystematicName>  (303) 
(2S,3R,4R,5R,6R)-3,4-dihydroxy-6-(hydroxymethyl)-5-[(2R,3R,4S,5R,6R)-3,4,5-trihydroxy-6-(hydroxymethyl)oxan-2-yl]oxy-oxane-2-sulfonamide

>  <Synonyms>  (303) 
alpha-D-Glucopyranosyl-(1->4)-1-thio-beta-D-glucopyranosylsulfonamide

>  <Type>  (303) 
NON-POLYMER

>  <Formula>  (303) 
C12 H23 N O12 S

>  <ObservedFormula>  (303) 
C12 S N O12

>  <MolecularWeight>  (303) 
405.376

>  <ModifiedDate>  (303) 
2011-06-04

>  <Parent>  (303) 


>  <OneLetterCode>  (303) 


>  <SubcomponentList>  (303) 


>  <AmbiguousFlag>  (303) 
N

>  <InsertionCode>  (303) 


>  <InstanceId>  (303) 
3HKT_2SD_A_300

>  <ChemCompId>  (303) 
2SD

>  <PdbId>  (303) 
3HKT

>  <ResidueNumber>  (303) 
300

>  <InChI>  (303) 
InChI=1S/C12H23NO12S/c13-26(21,22)12-9(20)7(18)10(4(2-15)24-12)25-11-8(19)6(17)5(16)3(1-14)23-11/h3-12,14-20H,1-2H2,(H2,13,21,22)/t3-,4-,5+,6+,7-,8-,9-,10+,11-,12+/m1/s1

>  <InChIKey>  (303) 
DDOHHRUODNXYAC-WWZHPTPQSA-N

>  <SMILES>  (303) 
C([C@@H]1[C@@H]([C@@H]([C@H]([C@H](O1)O[C@H]2[C@H](O[C@H]([C@@H]([C@H]2O)O)S(=O)(=O)N)CO)O)O)O)O

>  <MissingHeavyAtoms>  (303) 
0

>  <Model>  (303) 
1

>  <AltIds>  (303) 


>  <pKI>  (303) 
5.39

>  <ChemblID>  (303) 
-

>  <standardized_canonical_smiles>  (303) 
NS(=O)(=O)[C@@H]1O[C@H](CO)[C@H](O[C@H]2O[C@H](CO)[C@H](O)[C@H](O)[C@H]2O)[C@H](O)[C@H]1O

$$$$
3IEO_AMJ_A_300
     RDKit          3D

 18 18  0  0  0  0  0  0  0  0999 V2000
   -5.7070    8.1990   12.0880 C   0  0  0  0  0  0  0  0  0  0  0  0
   -5.1340    6.0750   13.1670 N   0  0  0  0  0  0  0  0  0  0  0  0
   -6.2950    9.1100   12.6680 O   0  0  0  0  0  0  0  0  0  0  0  0
   -4.6100    7.3960   12.7910 C   0  0  0  0  0  0  0  0  0  0  0  0
   -3.4180    7.2240   11.8470 C   0  0  0  0  0  0  0  0  0  0  0  0
   -3.6230    4.9190   11.4990 C   0  0  0  0  0  0  0  0  0  0  0  0
   -7.0550    7.2340   14.0610 C   0  0  0  0  0  0  0  0  0  0  0  0
   -6.7780    4.8430   14.1110 O   0  0  0  0  0  0  0  0  0  0  0  0
   -5.0600   10.9920    7.0690 C   0  0  0  0  0  0  0  0  0  0  0  0
   -6.0070   11.5360    7.9290 C   0  0  0  0  0  0  0  0  0  0  0  0
   -4.7320    9.6450    7.1590 C   0  0  0  0  0  0  0  0  0  0  0  0
   -6.6250   10.7320    8.8790 C   0  0  0  0  0  0  0  0  0  0  0  0
   -5.3500    8.8410    8.1090 C   0  0  0  0  0  0  0  0  0  0  0  0
   -6.9780    8.4990   10.0150 C   0  0  0  0  0  0  0  0  0  0  0  0
   -5.9550    7.8320   10.8340 N   0  0  0  0  0  0  0  0  0  0  0  0
   -2.8090    5.9440   12.0740 O   0  0  0  0  0  0  0  0  0  0  0  0
   -6.3050    5.9300   13.7810 C   0  0  0  0  0  0  0  0  0  0  0  0
   -6.2970    9.3840    8.9690 C   0  0  0  0  0  0  0  0  0  0  0  0
  3  1  2  0
  4  1  1  0
 15  1  1  0
  4  2  1  0
 17  2  1  0
  5  4  1  0
 16  5  1  0
 16  6  1  0
 17  7  1  0
 17  8  2  0
 10  9  2  0
 11  9  1  0
 12 10  1  0
 13 11  2  0
 18 12  2  0
 18 13  1  0
 15 14  1  0
 18 14  1  0
A    1
C
A    2
N
A    3
O
A    4
CA
A    5
CB
A    6
CAA
A    7
CAB
A    8
OAC
A    9
CAE
A   10
CAF
A   11
CAG
A   12
CAH
A   13
CAI
A   14
CAJ
A   15
NAL
A   16
OAN
A   17
CAO
A   18
CAQ
M  END
>  <Id>  (304) 
3IEO_AMJ_A_300

>  <ChainId>  (304) 
A

>  <AsymId>  (304) 
E

>  <SeqNum>  (304) 
300

>  <Name>  (304) 
N~2~-acetyl-N-benzyl-O-methyl-L-serinamide

>  <SystematicName>  (304) 
(2S)-2-acetamido-3-methoxy-N-(phenylmethyl)propanamide

>  <Synonyms>  (304) 


>  <Type>  (304) 
NON-POLYMER

>  <Formula>  (304) 
C13 H18 N2 O3

>  <ObservedFormula>  (304) 
C13 N2 O3

>  <MolecularWeight>  (304) 
250.294

>  <ModifiedDate>  (304) 
2011-06-04

>  <Parent>  (304) 


>  <OneLetterCode>  (304) 


>  <SubcomponentList>  (304) 


>  <AmbiguousFlag>  (304) 
N

>  <InsertionCode>  (304) 


>  <InstanceId>  (304) 
3IEO_AMJ_A_300

>  <ChemCompId>  (304) 
AMJ

>  <PdbId>  (304) 
3IEO

>  <ResidueNumber>  (304) 
300

>  <InChI>  (304) 
InChI=1S/C13H18N2O3/c1-10(16)15-12(9-18-2)13(17)14-8-11-6-4-3-5-7-11/h3-7,12H,8-9H2,1-2H3,(H,14,17)(H,15,16)/t12-/m0/s1

>  <InChIKey>  (304) 
VPPJLAIAVCUEMN-LBPRGKRZSA-N

>  <SMILES>  (304) 
CC(=O)N[C@@H](COC)C(=O)NCc1ccccc1

>  <MissingHeavyAtoms>  (304) 
0

>  <Model>  (304) 
1

>  <AltIds>  (304) 


>  <pKI>  (304) 
6.48

>  <ChemblID>  (304) 
-

>  <standardized_canonical_smiles>  (304) 
COC[C@H](NC(C)=O)C(=O)NCc1ccccc1

$$$$
4R59_3J3_A_302
     RDKit          3D

 25 26  0  0  0  0  0  0  0  0999 V2000
   -1.9580    7.3500   82.0560 O   0  0  0  0  0  0  0  0  0  0  0  0
   -1.4160    8.6970   81.9830 C   0  0  0  0  0  0  0  0  0  0  0  0
   -0.9330    9.1690   80.7160 C   0  0  0  0  0  0  0  0  0  0  0  0
   -2.0420    9.6090   79.9230 O   0  0  0  0  0  0  0  0  0  0  0  0
    0.0690   10.2700   80.6640 C   0  0  0  0  0  0  0  0  0  0  0  0
   -0.3040   11.4020   79.9550 O   0  0  0  0  0  0  0  0  0  0  0  0
    0.9750   10.5010   81.8920 C   0  0  0  0  0  0  0  0  0  0  0  0
    1.2860   11.7760   82.3430 C   0  0  0  0  0  0  0  0  0  0  0  0
    2.4260   11.3750   83.0700 O   0  0  0  0  0  0  0  0  0  0  0  0
    0.7080    9.6530   83.0900 O   0  0  0  0  0  0  0  0  0  0  0  0
   -0.5520    8.9760   83.1280 C   0  0  0  0  0  0  0  0  0  0  0  0
   -0.3490    7.6330   84.1870 S   0  0  0  0  0  0  0  0  0  0  0  0
   -1.3240    8.2220   85.1070 O   0  0  0  0  0  0  0  0  0  0  0  0
    0.9470    7.7120   84.7580 O   0  0  0  0  0  0  0  0  0  0  0  0
   -0.7630    6.2740   83.9150 N   0  0  0  0  0  0  0  0  0  0  0  0
   -2.0260    5.7680   84.3150 C   0  0  0  0  0  0  0  0  0  0  0  0
   -2.1170    4.4860   85.1410 C   0  0  0  0  0  0  0  0  0  0  0  0
    0.2530    5.2950   83.7720 C   0  0  0  0  0  0  0  0  0  0  0  0
    0.1900    4.0330   84.5930 C   0  0  0  0  0  0  0  0  0  0  0  0
   -0.8950    3.9640   85.5120 C   0  0  0  0  0  0  0  0  0  0  0  0
   -0.7830    2.6580   86.2400 O   0  0  0  0  0  0  0  0  0  0  0  0
   -1.5740    1.5650   86.7070 S   0  0  0  0  0  0  0  0  0  0  0  0
   -1.5210    1.4330   87.9430 O   0  0  0  0  0  0  0  0  0  0  0  0
   -2.8940    1.7080   86.3350 O   0  0  0  0  0  0  0  0  0  0  0  0
   -1.0660    0.3630   86.0300 N   0  0  0  0  0  0  0  0  0  0  0  0
  2  1  1  0
  3  2  1  0
 11  2  1  0
  4  3  1  0
  5  3  1  0
  6  5  1  0
  7  5  1  0
  8  7  1  0
 10  7  1  0
  9  8  1  0
 11 10  1  0
 12 11  1  0
 13 12  2  0
 14 12  2  0
 15 12  1  0
 16 15  1  0
 18 15  1  0
 17 16  1  0
 20 17  1  0
 19 18  1  0
 20 19  1  0
 21 20  1  0
 22 21  1  0
 23 22  2  0
 24 22  2  0
 25 22  1  0
A    1
O2
A    2
C2
A    3
C3
A    4
O3
A    5
C4
A    6
O4
A    7
C5
A    8
C6
A    9
O6
A   10
O5
A   11
C1
A   12
SAY
A   13
OAD
A   14
OAE
A   15
NAW
A   16
CAN
A   17
CAL
A   18
CAM
A   19
CAK
A   20
CAQ
A   21
OAP
A   22
SAX
A   23
OAB
A   24
OAC
A   25
NAA
M  END
>  <Id>  (305) 
4R59_3J3_A_302

>  <ChainId>  (305) 
A

>  <AsymId>  (305) 
D

>  <SeqNum>  (305) 
302

>  <Name>  (305) 
(1R)-1,5-anhydro-1-{[4-(sulfamoyloxy)piperidin-1-yl]sulfonyl}-D-galactitol

>  <SystematicName>  (305) 
[1-[(2R,3R,4S,5R,6R)-6-(hydroxymethyl)-3,4,5-tris(oxidanyl)oxan-2-yl]sulfonylpiperidin-4-yl] sulfamate

>  <Synonyms>  (305) 


>  <Type>  (305) 
NON-POLYMER

>  <Formula>  (305) 
C11 H22 N2 O10 S2

>  <ObservedFormula>  (305) 
C11 S2 N2 O10

>  <MolecularWeight>  (305) 
406.43

>  <ModifiedDate>  (305) 
2014-10-10

>  <Parent>  (305) 


>  <OneLetterCode>  (305) 


>  <SubcomponentList>  (305) 


>  <AmbiguousFlag>  (305) 
N

>  <InsertionCode>  (305) 


>  <InstanceId>  (305) 
4R59_3J3_A_302

>  <ChemCompId>  (305) 
3J3

>  <PdbId>  (305) 
4R59

>  <ResidueNumber>  (305) 
302

>  <InChI>  (305) 
InChI=1S/C11H22N2O10S2/c12-25(20,21)23-6-1-3-13(4-2-6)24(18,19)11-10(17)9(16)8(15)7(5-14)22-11/h6-11,14-17H,1-5H2,(H2,12,20,21)/t7-,8+,9+,10-,11-/m1/s1

>  <InChIKey>  (305) 
YWFAXYRITIKYCW-ZKKRXERASA-N

>  <SMILES>  (305) 
C1CN(CCC1OS(=O)(=O)N)S(=O)(=O)[C@@H]2[C@@H]([C@H]([C@H]([C@H](O2)CO)O)O)O

>  <MissingHeavyAtoms>  (305) 
0

>  <Model>  (305) 
1

>  <AltIds>  (305) 


>  <pKI>  (305) 
7.96

>  <ChemblID>  (305) 
-

>  <standardized_canonical_smiles>  (305) 
NS(=O)(=O)OC1CCN(S(=O)(=O)[C@H]2O[C@H](CO)[C@H](O)[C@H](O)[C@H]2O)CC1

$$$$
2FMZ_DPN_A_300
     RDKit          3D

 12 12  0  0  0  0  0  0  0  0999 V2000
   -0.2700    3.1000   12.8500 N   0  0  0  0  0  0  0  0  0  0  0  0
    0.0440    4.3630   12.0430 C   0  0  0  0  0  0  0  0  0  0  0  0
    1.4500    4.2900   11.6200 C   0  0  0  0  0  0  0  0  0  0  0  0
    1.8200    3.2700   11.0600 O   0  0  0  0  0  0  0  0  0  0  0  0
    2.2100    5.2000   11.7100 O   0  0  0  0  0  0  0  0  0  0  0  0
   -0.6150    4.0930   10.6850 C   0  0  0  0  0  0  0  0  0  0  0  0
   -1.9660    4.7350   10.5190 C   0  0  0  0  0  0  0  0  0  0  0  0
   -2.1200    6.1150   10.6320 C   0  0  0  0  0  0  0  0  0  0  0  0
   -3.0840    3.9590   10.2290 C   0  0  0  0  0  0  0  0  0  0  0  0
   -3.3670    6.7110   10.4570 C   0  0  0  0  0  0  0  0  0  0  0  0
   -4.3330    4.5470   10.0520 C   0  0  0  0  0  0  0  0  0  0  0  0
   -4.4740    5.9250   10.1660 C   0  0  0  0  0  0  0  0  0  0  0  0
  2  1  1  0
  3  2  1  0
  6  2  1  0
  4  3  2  0
  5  3  1  0
  7  6  1  0
  8  7  2  0
  9  7  1  0
 10  8  1  0
 11  9  2  0
 12 10  2  0
 12 11  1  0
A    1
N
A    2
CA
A    3
C
A    4
O
A    5
OXT
A    6
CB
A    7
CG
A    8
CD1
A    9
CD2
A   10
CE1
A   11
CE2
A   12
CZ
M  END
>  <Id>  (306) 
2FMZ_DPN_A_300

>  <ChainId>  (306) 
A

>  <AsymId>  (306) 
D

>  <SeqNum>  (306) 
300

>  <Name>  (306) 
D-PHENYLALANINE

>  <SystematicName>  (306) 
(2R)-2-azanyl-3-phenyl-propanoic acid

>  <Synonyms>  (306) 


>  <Type>  (306) 
D-PEPTIDE LINKING

>  <Formula>  (306) 
C9 H11 N O2

>  <ObservedFormula>  (306) 
C9 N O2

>  <MolecularWeight>  (306) 
165.189

>  <ModifiedDate>  (306) 
2013-02-05

>  <Parent>  (306) 


>  <OneLetterCode>  (306) 
F

>  <SubcomponentList>  (306) 


>  <AmbiguousFlag>  (306) 
N

>  <InsertionCode>  (306) 


>  <InstanceId>  (306) 
2FMZ_DPN_A_300

>  <ChemCompId>  (306) 
DPN

>  <PdbId>  (306) 
2FMZ

>  <ResidueNumber>  (306) 
300

>  <InChI>  (306) 
InChI=1S/C9H11NO2/c10-8(9(11)12)6-7-4-2-1-3-5-7/h1-5,8H,6,10H2,(H,11,12)/t8-/m1/s1

>  <InChIKey>  (306) 
COLNVLDHVKWLRT-MRVPVSSYSA-N

>  <SMILES>  (306) 
c1ccc(cc1)C[C@H](C(=O)O)N

>  <MissingHeavyAtoms>  (306) 
0

>  <Model>  (306) 
1

>  <AltIds>  (306) 


>  <pKI>  (306) 
7.46

>  <ChemblID>  (306) 
-

>  <standardized_canonical_smiles>  (306) 
N[C@H](Cc1ccccc1)C(=O)O

$$$$
3IBU_O48_A_300
     RDKit          3D

 15 14  0  0  0  0  0  0  0  0999 V2000
   -4.6680    1.9020   14.5860 C   0  0  0  0  0  0  0  0  0  0  0  0
   -5.3980   -0.4970   16.2450 N   0  0  0  0  0  0  0  0  0  0  0  0
   -7.1440    1.2230   16.4020 O   0  0  0  0  0  0  0  0  0  0  0  0
   -5.8020    0.9370   16.7630 S   0  0  0  0  0  0  0  0  0  0  0  0
   -5.4780    2.9970   13.9150 C   0  0  0  0  0  0  0  0  0  0  0  0
   -5.4290    1.0410   18.1290 O   0  0  0  0  0  0  0  0  0  0  0  0
   -5.1300    4.4160   14.3470 C   0  0  0  0  0  0  0  0  0  0  0  0
   -4.8870    1.9950   16.0290 O   0  0  0  0  0  0  0  0  0  0  0  0
   -3.8390    4.9640   13.7830 C   0  0  0  0  0  0  0  0  0  0  0  0
   -3.5370    6.3600   14.2650 C   0  0  0  0  0  0  0  0  0  0  0  0
   -2.2240    6.9060   13.7890 C   0  0  0  0  0  0  0  0  0  0  0  0
   -1.9070    8.2760   14.3350 C   0  0  0  0  0  0  0  0  0  0  0  0
   -0.5010    8.7210   14.0400 C   0  0  0  0  0  0  0  0  0  0  0  0
   -0.2680   10.2040   14.1970 C   0  0  0  0  0  0  0  0  0  0  0  0
    0.1650   10.6270   15.5670 C   0  0  0  0  0  0  0  0  0  0  0  0
  5  1  1  0
  8  1  1  0
  4  2  1  0
  4  3  2  0
  6  4  2  0
  8  4  1  0
  7  5  1  0
  9  7  1  0
 10  9  1  0
 11 10  1  0
 12 11  1  0
 13 12  1  0
 14 13  1  0
 15 14  1  0
A    1
C1
A    2
N1
A    3
O1
A    4
S1
A    5
C2
A    6
O2
A    7
C3
A    8
O3
A    9
C4
A   10
C5
A   11
C6
A   12
C7
A   13
C8
A   14
C9
A   15
C10
M  END
>  <Id>  (307) 
3IBU_O48_A_300

>  <ChainId>  (307) 
A

>  <AsymId>  (307) 
C

>  <SeqNum>  (307) 
300

>  <Name>  (307) 
decyl sulfamate

>  <SystematicName>  (307) 
decyl sulfamate

>  <Synonyms>  (307) 
n-decyl sulfamate

>  <Type>  (307) 
NON-POLYMER

>  <Formula>  (307) 
C10 H23 N O3 S

>  <ObservedFormula>  (307) 
C10 S N O3

>  <MolecularWeight>  (307) 
237.36

>  <ModifiedDate>  (307) 
2011-06-04

>  <Parent>  (307) 


>  <OneLetterCode>  (307) 


>  <SubcomponentList>  (307) 


>  <AmbiguousFlag>  (307) 
N

>  <InsertionCode>  (307) 


>  <InstanceId>  (307) 
3IBU_O48_A_300

>  <ChemCompId>  (307) 
O48

>  <PdbId>  (307) 
3IBU

>  <ResidueNumber>  (307) 
300

>  <InChI>  (307) 
InChI=1S/C10H23NO3S/c1-2-3-4-5-6-7-8-9-10-14-15(11,12)13/h2-10H2,1H3,(H2,11,12,13)

>  <InChIKey>  (307) 
JBKMRMOTMJVNML-UHFFFAOYSA-N

>  <SMILES>  (307) 
CCCCCCCCCCOS(=O)(=O)N

>  <MissingHeavyAtoms>  (307) 
0

>  <Model>  (307) 
1

>  <AltIds>  (307) 


>  <pKI>  (307) 
9.15

>  <ChemblID>  (307) 
-

>  <standardized_canonical_smiles>  (307) 
CCCCCCCCCCOS(N)(=O)=O

$$$$
5CLU_S8A_A_302
     RDKit          3D

 16 17  0  0  0  0  0  0  0  0999 V2000
   -3.2530    1.8630   16.8070 O   0  0  0  0  0  0  0  0  0  0  0  0
   -3.7980    2.6210   16.0690 C   0  0  0  0  0  0  0  0  0  0  0  0
   -3.1990    3.5380   15.0850 C   0  0  0  0  0  0  0  0  0  0  0  0
   -1.8400    3.7070   14.8460 C   0  0  0  0  0  0  0  0  0  0  0  0
   -1.4630    4.6640   13.9260 C   0  0  0  0  0  0  0  0  0  0  0  0
   -2.4080    5.4290   13.2710 C   0  0  0  0  0  0  0  0  0  0  0  0
   -3.7550    5.2640   13.4690 C   0  0  0  0  0  0  0  0  0  0  0  0
   -4.1250    4.2910   14.3910 C   0  0  0  0  0  0  0  0  0  0  0  0
   -5.7360    3.8340   14.8490 S   0  0  0  0  0  0  0  0  0  0  0  0
   -6.4440    4.8840   15.4890 O   0  0  0  0  0  0  0  0  0  0  0  0
   -6.4340    3.1410   13.8390 O   0  0  0  0  0  0  0  0  0  0  0  0
   -5.1790    2.7580   15.9900 N   0  0  0  0  0  0  0  0  0  0  0  0
   -6.1840    2.1600   16.8440 C   0  0  0  0  0  0  0  0  0  0  0  0
   -6.5930    0.7920   16.4220 C   0  0  0  0  0  0  0  0  0  0  0  0
   -5.8750   -0.0120   15.8480 O   0  0  0  0  0  0  0  0  0  0  0  0
   -7.8210    0.5840   16.7510 O   0  0  0  0  0  0  0  0  0  0  0  0
  2  1  2  0
  3  2  1  0
 12  2  1  0
  4  3  2  0
  8  3  1  0
  5  4  1  0
  6  5  2  0
  7  6  1  0
  8  7  2  0
  9  8  1  0
 10  9  2  0
 11  9  2  0
 12  9  1  0
 13 12  1  0
 14 13  1  0
 15 14  2  0
 16 14  1  0
A    1
O4
A    2
C7
A    3
C3
A    4
C2
A    5
C8
A    6
C1
A    7
C9
A    8
C5
A    9
S1
A   10
O1
A   11
O5
A   12
N1
A   13
C4
A   14
C6
A   15
O3
A   16
O2
M  END
>  <Id>  (308) 
5CLU_S8A_A_302

>  <ChainId>  (308) 
A

>  <AsymId>  (308) 
C

>  <SeqNum>  (308) 
302

>  <Name>  (308) 
(1,1-dioxido-3-oxo-1,2-benzothiazol-2(3H)-yl)acetic acid

>  <SystematicName>  (308) 
2-[1,1,3-tris(oxidanylidene)-1,2-benzothiazol-2-yl]ethanoic acid

>  <Synonyms>  (308) 


>  <Type>  (308) 
NON-POLYMER

>  <Formula>  (308) 
C9 H7 N O5 S

>  <ObservedFormula>  (308) 
C9 S N O5

>  <MolecularWeight>  (308) 
241.221

>  <ModifiedDate>  (308) 
2015-11-06

>  <Parent>  (308) 


>  <OneLetterCode>  (308) 


>  <SubcomponentList>  (308) 


>  <AmbiguousFlag>  (308) 
N

>  <InsertionCode>  (308) 


>  <InstanceId>  (308) 
5CLU_S8A_A_302

>  <ChemCompId>  (308) 
S8A

>  <PdbId>  (308) 
5CLU

>  <ResidueNumber>  (308) 
302

>  <InChI>  (308) 
InChI=1S/C9H7NO5S/c11-8(12)5-10-9(13)6-3-1-2-4-7(6)16(10,14)15/h1-4H,5H2,(H,11,12)

>  <InChIKey>  (308) 
MQAZHTHFEBUHCD-UHFFFAOYSA-N

>  <SMILES>  (308) 
c1ccc2c(c1)C(=O)N(S2(=O)=O)CC(=O)O

>  <MissingHeavyAtoms>  (308) 
0

>  <Model>  (308) 
1

>  <AltIds>  (308) 


>  <pKI>  (308) 
4.11

>  <ChemblID>  (308) 
-

>  <standardized_canonical_smiles>  (308) 
O=C(O)CN1C(=O)c2ccccc2S1(=O)=O

$$$$
