2PBW_DOQ_B_402
     RDKit          3D

 22 22  0  0  0  0  0  0  0  0999 V2000
    0.1900  -28.1660   39.0310 O   0  0  0  0  0  0  0  0  0  0  0  0
    0.9020  -29.0470   38.5020 C   0  0  0  0  0  0  0  0  0  0  0  0
    0.8210  -29.4420   37.3180 O   0  0  0  0  0  0  0  0  0  0  0  0
    1.9560  -29.7130   39.3890 C   0  0  0  0  0  0  0  0  0  0  0  0
    3.3390  -29.5560   38.7520 C   0  0  0  0  0  0  0  0  0  0  0  0
    1.6140  -31.1960   39.5320 C   0  0  0  0  0  0  0  0  0  0  0  0
    1.2380  -31.7070   40.7680 C   0  0  0  0  0  0  0  0  0  0  0  0
    0.9200  -33.0570   40.8770 C   0  0  0  0  0  0  0  0  0  0  0  0
    0.5390  -33.6150   42.0930 C   0  0  0  0  0  0  0  0  0  0  0  0
    0.1680  -35.0990   42.1460 C   0  0  0  0  0  0  0  0  0  0  0  0
    0.4620  -32.7660   43.3650 C   0  0  0  0  0  0  0  0  0  0  0  0
   -0.1550  -33.5450   44.5280 C   0  0  0  0  0  0  0  0  0  0  0  0
    0.2730  -32.7960   45.7190 N   0  0  0  0  0  0  0  0  0  0  0  0
    1.4470  -31.9920   45.3400 C   0  0  0  0  0  0  0  0  0  0  0  0
    1.0820  -30.5040   45.3540 C   0  0  0  0  0  0  0  0  0  0  0  0
    0.0180  -30.1860   45.9270 O   0  0  0  0  0  0  0  0  0  0  0  0
    1.8820  -29.7120   44.8110 O   0  0  0  0  0  0  0  0  0  0  0  0
    1.8450  -32.4610   43.9390 C   0  0  0  0  0  0  0  0  0  0  0  0
    2.6690  -33.7490   44.0060 C   0  0  0  0  0  0  0  0  0  0  0  0
    4.0900  -33.4790   44.5060 C   0  0  0  0  0  0  0  0  0  0  0  0
    4.5240  -32.3140   44.3840 O   0  0  0  0  0  0  0  0  0  0  0  0
    4.7170  -34.4450   44.9950 O   0  0  0  0  0  0  0  0  0  0  0  0
  2  1  2  0
  3  2  1  0
  4  2  1  0
  5  4  1  0
  6  4  1  0
  7  6  2  0
  8  7  1  0
  9  8  2  0
 10  9  1  0
 11  9  1  0
 12 11  1  0
 18 11  1  0
 13 12  1  0
 14 13  1  0
 15 14  1  0
 18 14  1  0
 16 15  2  0
 17 15  1  0
 19 18  1  0
 20 19  1  0
 21 20  1  0
 22 20  2  0
A    1
OAD
A    2
CAQ
A    3
OAG
A    4
CAS
A    5
CAB
A    6
CAK
A    7
CAI
A    8
CAJ
A    9
CAP
A   10
CAA
A   11
CAT
A   12
CAL
A   13
N
A   14
CA
A   15
C
A   16
OXT
A   17
O
A   18
CB
A   19
CG
A   20
CD
A   21
OE2
A   22
OE1
M  END
>  <Id>  (1) 
2PBW_DOQ_B_402

>  <ChainId>  (1) 
B

>  <AsymId>  (1) 
D

>  <SeqNum>  (1) 
402

>  <Name>  (1) 
(2S,3S,4S)-2-CARBOXY-4-[(1Z,3E,5R)-5-CARBOXY-1-METHYL-1,3-HEXADIENYL]-3-PYRROLIDINEACETIC ACID

>  <SystematicName>  (1) 
(2S,3S,4S)-3-(carboxymethyl)-4-[(2Z,4E,6R)-7-hydroxy-6-methyl-7-oxo-hepta-2,4-dien-2-yl]pyrrolidine-2-carboxylic acid

>  <Synonyms>  (1) 
(2S,3S,4S)-3-CARBOXYMETHYL-4-[(1Z,3E,5R)-5-CARBOXY-1-METHYL-HEXA-1,3-DIENYL]-PYRROLIDINE-2-CARBOXYLIC ACID; DOMOIC ACID

>  <Type>  (1) 
NON-POLYMER

>  <Formula>  (1) 
C15 H21 N O6

>  <ObservedFormula>  (1) 
C15 N O6

>  <MolecularWeight>  (1) 
311.33

>  <ModifiedDate>  (1) 
2011-06-04

>  <Parent>  (1) 


>  <OneLetterCode>  (1) 


>  <SubcomponentList>  (1) 


>  <AmbiguousFlag>  (1) 
N

>  <InsertionCode>  (1) 


>  <InstanceId>  (1) 
2PBW_DOQ_B_402

>  <ChemCompId>  (1) 
DOQ

>  <PdbId>  (1) 
2PBW

>  <ResidueNumber>  (1) 
402

>  <InChI>  (1) 
InChI=1S/C15H21NO6/c1-8(4-3-5-9(2)14(19)20)11-7-16-13(15(21)22)10(11)6-12(17)18/h3-5,9-11,13,16H,6-7H2,1-2H3,(H,17,18)(H,19,20)(H,21,22)/b5-3+,8-4-/t9-,10+,11-,13+/m1/s1

>  <InChIKey>  (1) 
VZFRNCSOCOPNDB-AOKDLOFSSA-N

>  <SMILES>  (1) 
C[C@H](\C=C\C=C(\C)/[C@H]1CN[C@@H]([C@H]1CC(=O)O)C(=O)O)C(=O)O

>  <MissingHeavyAtoms>  (1) 
0

>  <Model>  (1) 
1

>  <AltIds>  (1) 


>  <pKI>  (1) 
8.96

>  <ChemblID>  (1) 
CHEMBL482097

>  <standardized_canonical_smiles>  (1) 
C/C(=C\C=C\[C@@H](C)C(=O)O)[C@H]1CN[C@H](C(=O)O)[C@H]1CC(=O)O

$$$$
5MFQ_KAI_B_901
     RDKit          3D

 15 15  0  0  0  0  0  0  0  0999 V2000
   -1.4130   33.3510   17.1990 N   0  0  0  0  0  0  0  0  0  0  0  0
   -1.3880   34.2580   18.3820 C   0  0  0  0  0  0  0  0  0  0  0  0
   -0.5470   35.2460   21.0580 C   0  0  0  0  0  0  0  0  0  0  0  0
   -0.5980   32.9790   22.0550 C   0  0  0  0  0  0  0  0  0  0  0  0
   -0.9020   31.9700   17.6310 C   0  0  0  0  0  0  0  0  0  0  0  0
   -0.3030   32.2070   19.0230 C   0  0  0  0  0  0  0  0  0  0  0  0
    1.1700   32.6600   18.9260 C   0  0  0  0  0  0  0  0  0  0  0  0
   -1.2430   33.3100   19.5770 C   0  0  0  0  0  0  0  0  0  0  0  0
    2.2040   31.5640   18.6720 C   0  0  0  0  0  0  0  0  0  0  0  0
   -0.7850   33.9330   20.8890 C   0  0  0  0  0  0  0  0  0  0  0  0
   -2.0980   30.9550   17.6320 C   0  0  0  0  0  0  0  0  0  0  0  0
   -3.1590   31.4550   17.1280 O   0  0  0  0  0  0  0  0  0  0  0  0
    1.8450   30.3580   18.8200 O   0  0  0  0  0  0  0  0  0  0  0  0
    3.3600   31.9720   18.3290 O   0  0  0  0  0  0  0  0  0  0  0  0
   -1.9330   29.7960   18.1090 O   0  0  0  0  0  0  0  0  0  0  0  0
  2  1  1  0
  5  1  1  0
  8  2  1  0
 10  3  2  0
 10  4  1  0
  6  5  1  0
 11  5  1  0
  7  6  1  0
  8  6  1  0
  9  7  1  0
 10  8  1  0
 13  9  1  0
 14  9  2  0
 12 11  2  0
 15 11  1  0
A    1
N
A    2
CD
A    3
CD1
A    4
CD2
A    5
CA
A    6
CB
A    7
CB1
A    8
CG
A    9
CG1
A   10
CG2
A   11
C
A   12
O
A   13
OD1
A   14
OD2
A   15
OXT
M  END
>  <Id>  (2) 
5MFQ_KAI_B_901

>  <ChainId>  (2) 
B

>  <AsymId>  (2) 
J

>  <SeqNum>  (2) 
901

>  <Name>  (2) 
3-(CARBOXYMETHYL)-4-ISOPROPENYLPROLINE

>  <SystematicName>  (2) 
(2S,3S,4S)-3-(carboxymethyl)-4-prop-1-en-2-yl-pyrrolidine-2-carboxylic acid

>  <Synonyms>  (2) 
KAINATE

>  <Type>  (2) 
NON-POLYMER

>  <Formula>  (2) 
C10 H15 N O4

>  <ObservedFormula>  (2) 
C10 N O4

>  <MolecularWeight>  (2) 
213.23

>  <ModifiedDate>  (2) 
2011-06-04

>  <Parent>  (2) 


>  <OneLetterCode>  (2) 


>  <SubcomponentList>  (2) 


>  <AmbiguousFlag>  (2) 
N

>  <InsertionCode>  (2) 


>  <InstanceId>  (2) 
5MFQ_KAI_B_901

>  <ChemCompId>  (2) 
KAI

>  <PdbId>  (2) 
5MFQ

>  <ResidueNumber>  (2) 
901

>  <InChI>  (2) 
InChI=1S/C10H15NO4/c1-5(2)7-4-11-9(10(14)15)6(7)3-8(12)13/h6-7,9,11H,1,3-4H2,2H3,(H,12,13)(H,14,15)/t6-,7+,9-/m0/s1

>  <InChIKey>  (2) 
VLSMHEGGTFMBBZ-OOZYFLPDSA-N

>  <MissingHeavyAtoms>  (2) 
0

>  <Model>  (2) 
1

>  <AltIds>  (2) 


>  <pKI>  (2) 
7.13

>  <ChemblID>  (2) 
CHEMBL275040

>  <standardized_canonical_smiles>  (2) 
C=C(C)[C@H]1CN[C@H](C(=O)O)[C@H]1CC(=O)O

$$$$
4E0X_KAI_B_301
     RDKit          3D

 15 15  0  0  0  0  0  0  0  0999 V2000
    0.2980   32.9770  134.5790 N   0  0  0  0  0  0  0  0  0  0  0  0
    0.0590   33.8430  135.7740 C   0  0  0  0  0  0  0  0  0  0  0  0
    1.3410   32.8920  139.4040 C   0  0  0  0  0  0  0  0  0  0  0  0
    0.7770   35.0660  138.3530 C   0  0  0  0  0  0  0  0  0  0  0  0
    0.9580   31.6750  135.0420 C   0  0  0  0  0  0  0  0  0  0  0  0
    1.5190   32.0570  136.4180 C   0  0  0  0  0  0  0  0  0  0  0  0
    2.8530   32.8220  136.2810 C   0  0  0  0  0  0  0  0  0  0  0  0
    0.4150   32.9730  136.9880 C   0  0  0  0  0  0  0  0  0  0  0  0
    4.0870   31.9390  136.1070 C   0  0  0  0  0  0  0  0  0  0  0  0
    0.8270   33.7280  138.2390 C   0  0  0  0  0  0  0  0  0  0  0  0
   -0.0770   30.4840  135.0800 C   0  0  0  0  0  0  0  0  0  0  0  0
   -1.1920   30.7200  134.5120 O   0  0  0  0  0  0  0  0  0  0  0  0
    5.1580   32.5560  135.7940 O   0  0  0  0  0  0  0  0  0  0  0  0
    3.9490   30.6920  136.2690 O   0  0  0  0  0  0  0  0  0  0  0  0
    0.2590   29.4260  135.6650 O   0  0  0  0  0  0  0  0  0  0  0  0
  2  1  1  0
  5  1  1  0
  8  2  1  0
 10  3  2  0
 10  4  1  0
  6  5  1  0
 11  5  1  0
  7  6  1  0
  8  6  1  0
  9  7  1  0
 10  8  1  0
 13  9  1  0
 14  9  2  0
 12 11  2  0
 15 11  1  0
A    1
N
A    2
CD
A    3
CD1
A    4
CD2
A    5
CA
A    6
CB
A    7
CB1
A    8
CG
A    9
CG1
A   10
CG2
A   11
C
A   12
O
A   13
OD1
A   14
OD2
A   15
OXT
M  END
>  <Id>  (3) 
4E0X_KAI_B_301

>  <ChainId>  (3) 
B

>  <AsymId>  (3) 
H

>  <SeqNum>  (3) 
301

>  <Name>  (3) 
3-(CARBOXYMETHYL)-4-ISOPROPENYLPROLINE

>  <SystematicName>  (3) 
(2S,3S,4S)-3-(carboxymethyl)-4-prop-1-en-2-yl-pyrrolidine-2-carboxylic acid

>  <Synonyms>  (3) 
KAINATE

>  <Type>  (3) 
NON-POLYMER

>  <Formula>  (3) 
C10 H15 N O4

>  <ObservedFormula>  (3) 
C10 N O4

>  <MolecularWeight>  (3) 
213.23

>  <ModifiedDate>  (3) 
2011-06-04

>  <Parent>  (3) 


>  <OneLetterCode>  (3) 


>  <SubcomponentList>  (3) 


>  <AmbiguousFlag>  (3) 
N

>  <InsertionCode>  (3) 


>  <InstanceId>  (3) 
4E0X_KAI_B_301

>  <ChemCompId>  (3) 
KAI

>  <PdbId>  (3) 
4E0X

>  <ResidueNumber>  (3) 
301

>  <InChI>  (3) 
InChI=1S/C10H15NO4/c1-5(2)7-4-11-9(10(14)15)6(7)3-8(12)13/h6-7,9,11H,1,3-4H2,2H3,(H,12,13)(H,14,15)/t6-,7+,9-/m0/s1

>  <InChIKey>  (3) 
VLSMHEGGTFMBBZ-OOZYFLPDSA-N

>  <SMILES>  (3) 
CC(=C)[C@H]1CN[C@@H]([C@H]1CC(=O)O)C(=O)O

>  <MissingHeavyAtoms>  (3) 
0

>  <Model>  (3) 
1

>  <AltIds>  (3) 


>  <pKI>  (3) 
7.13

>  <ChemblID>  (3) 
CHEMBL275040

>  <standardized_canonical_smiles>  (3) 
C=C(C)[C@H]1CN[C@H](C(=O)O)[C@H]1CC(=O)O

$$$$
5MFW_KAI_B_902
     RDKit          3D

 15 15  0  0  0  0  0  0  0  0999 V2000
   34.1500    1.2510   17.0990 N   0  0  0  0  0  0  0  0  0  0  0  0
   34.3350    0.3540   18.2640 C   0  0  0  0  0  0  0  0  0  0  0  0
   33.5480   -0.8510   20.8680 C   0  0  0  0  0  0  0  0  0  0  0  0
   33.2220    1.3550   21.9410 C   0  0  0  0  0  0  0  0  0  0  0  0
   33.4380    2.5350   17.5480 C   0  0  0  0  0  0  0  0  0  0  0  0
   32.8860    2.1590   18.9350 C   0  0  0  0  0  0  0  0  0  0  0  0
   31.5310    1.4130   18.8500 C   0  0  0  0  0  0  0  0  0  0  0  0
   33.9950    1.2250   19.4870 C   0  0  0  0  0  0  0  0  0  0  0  0
   30.2790    2.2590   18.6370 C   0  0  0  0  0  0  0  0  0  0  0  0
   33.5980    0.4860   20.7570 C   0  0  0  0  0  0  0  0  0  0  0  0
   34.4240    3.7680   17.5430 C   0  0  0  0  0  0  0  0  0  0  0  0
   35.5700    3.5120   17.0710 O   0  0  0  0  0  0  0  0  0  0  0  0
   30.3870    3.4940   18.8140 O   0  0  0  0  0  0  0  0  0  0  0  0
   29.2300    1.6300   18.2910 O   0  0  0  0  0  0  0  0  0  0  0  0
   34.0280    4.8700   18.0000 O   0  0  0  0  0  0  0  0  0  0  0  0
  2  1  1  0
  5  1  1  0
  8  2  1  0
 10  3  2  0
 10  4  1  0
  6  5  1  0
 11  5  1  0
  7  6  1  0
  8  6  1  0
  9  7  1  0
 10  8  1  0
 13  9  1  0
 14  9  2  0
 12 11  2  0
 15 11  1  0
A    1
N
A    2
CD
A    3
CD1
A    4
CD2
A    5
CA
A    6
CB
A    7
CB1
A    8
CG
A    9
CG1
A   10
CG2
A   11
C
A   12
O
A   13
OD1
A   14
OD2
A   15
OXT
M  END
>  <Id>  (4) 
5MFW_KAI_B_902

>  <ChainId>  (4) 
B

>  <AsymId>  (4) 
L

>  <SeqNum>  (4) 
902

>  <Name>  (4) 
3-(CARBOXYMETHYL)-4-ISOPROPENYLPROLINE

>  <SystematicName>  (4) 
(2S,3S,4S)-3-(carboxymethyl)-4-prop-1-en-2-yl-pyrrolidine-2-carboxylic acid

>  <Synonyms>  (4) 
KAINATE

>  <Type>  (4) 
NON-POLYMER

>  <Formula>  (4) 
C10 H15 N O4

>  <ObservedFormula>  (4) 
C10 N O4

>  <MolecularWeight>  (4) 
213.23

>  <ModifiedDate>  (4) 
2011-06-04

>  <Parent>  (4) 


>  <OneLetterCode>  (4) 


>  <SubcomponentList>  (4) 


>  <AmbiguousFlag>  (4) 
N

>  <InsertionCode>  (4) 


>  <InstanceId>  (4) 
5MFW_KAI_B_902

>  <ChemCompId>  (4) 
KAI

>  <PdbId>  (4) 
5MFW

>  <ResidueNumber>  (4) 
902

>  <InChI>  (4) 
InChI=1S/C10H15NO4/c1-5(2)7-4-11-9(10(14)15)6(7)3-8(12)13/h6-7,9,11H,1,3-4H2,2H3,(H,12,13)(H,14,15)/t6-,7+,9-/m0/s1

>  <InChIKey>  (4) 
VLSMHEGGTFMBBZ-OOZYFLPDSA-N

>  <MissingHeavyAtoms>  (4) 
0

>  <Model>  (4) 
1

>  <AltIds>  (4) 


>  <pKI>  (4) 
7.13

>  <ChemblID>  (4) 
CHEMBL275040

>  <standardized_canonical_smiles>  (4) 
C=C(C)[C@H]1CN[C@H](C(=O)O)[C@H]1CC(=O)O

$$$$
5MFV_KAI_B_901
     RDKit          3D

 15 15  0  0  0  0  0  0  0  0999 V2000
   34.1240    0.8450   16.9220 N   0  0  0  0  0  0  0  0  0  0  0  0
   34.2240   -0.0830   18.0900 C   0  0  0  0  0  0  0  0  0  0  0  0
   33.4880   -1.3120   20.6220 C   0  0  0  0  0  0  0  0  0  0  0  0
   33.4560    0.8670   21.8550 C   0  0  0  0  0  0  0  0  0  0  0  0
   33.3790    2.1040   17.3780 C   0  0  0  0  0  0  0  0  0  0  0  0
   32.8170    1.7150   18.7730 C   0  0  0  0  0  0  0  0  0  0  0  0
   31.4860    0.9420   18.6790 C   0  0  0  0  0  0  0  0  0  0  0  0
   33.9370    0.7950   19.3200 C   0  0  0  0  0  0  0  0  0  0  0  0
   30.2250    1.7580   18.4260 C   0  0  0  0  0  0  0  0  0  0  0  0
   33.6190    0.0300   20.5920 C   0  0  0  0  0  0  0  0  0  0  0  0
   34.3970    3.2980   17.4350 C   0  0  0  0  0  0  0  0  0  0  0  0
   35.5280    3.0110   16.9050 O   0  0  0  0  0  0  0  0  0  0  0  0
   30.3040    3.0140   18.5130 O   0  0  0  0  0  0  0  0  0  0  0  0
   29.1910    1.0770   18.1450 O   0  0  0  0  0  0  0  0  0  0  0  0
   34.0440    4.3790   17.9890 O   0  0  0  0  0  0  0  0  0  0  0  0
  2  1  1  0
  5  1  1  0
  8  2  1  0
 10  3  2  0
 10  4  1  0
  6  5  1  0
 11  5  1  0
  7  6  1  0
  8  6  1  0
  9  7  1  0
 10  8  1  0
 13  9  1  0
 14  9  2  0
 12 11  2  0
 15 11  1  0
A    1
N
A    2
CD
A    3
CD1
A    4
CD2
A    5
CA
A    6
CB
A    7
CB1
A    8
CG
A    9
CG1
A   10
CG2
A   11
C
A   12
O
A   13
OD1
A   14
OD2
A   15
OXT
M  END
>  <Id>  (5) 
5MFV_KAI_B_901

>  <ChainId>  (5) 
B

>  <AsymId>  (5) 
I

>  <SeqNum>  (5) 
901

>  <Name>  (5) 
3-(CARBOXYMETHYL)-4-ISOPROPENYLPROLINE

>  <SystematicName>  (5) 
(2S,3S,4S)-3-(carboxymethyl)-4-prop-1-en-2-yl-pyrrolidine-2-carboxylic acid

>  <Synonyms>  (5) 
KAINATE

>  <Type>  (5) 
NON-POLYMER

>  <Formula>  (5) 
C10 H15 N O4

>  <ObservedFormula>  (5) 
C10 N O4

>  <MolecularWeight>  (5) 
213.23

>  <ModifiedDate>  (5) 
2011-06-04

>  <Parent>  (5) 


>  <OneLetterCode>  (5) 


>  <SubcomponentList>  (5) 


>  <AmbiguousFlag>  (5) 
N

>  <InsertionCode>  (5) 


>  <InstanceId>  (5) 
5MFV_KAI_B_901

>  <ChemCompId>  (5) 
KAI

>  <PdbId>  (5) 
5MFV

>  <ResidueNumber>  (5) 
901

>  <InChI>  (5) 
InChI=1S/C10H15NO4/c1-5(2)7-4-11-9(10(14)15)6(7)3-8(12)13/h6-7,9,11H,1,3-4H2,2H3,(H,12,13)(H,14,15)/t6-,7+,9-/m0/s1

>  <InChIKey>  (5) 
VLSMHEGGTFMBBZ-OOZYFLPDSA-N

>  <MissingHeavyAtoms>  (5) 
0

>  <Model>  (5) 
1

>  <AltIds>  (5) 


>  <pKI>  (5) 
7.13

>  <ChemblID>  (5) 
CHEMBL275040

>  <standardized_canonical_smiles>  (5) 
C=C(C)[C@H]1CN[C@H](C(=O)O)[C@H]1CC(=O)O

$$$$
3C35_KAI_B_401
     RDKit          3D

 15 15  0  0  0  0  0  0  0  0999 V2000
    2.2630   34.1350   75.4400 N   0  0  0  0  0  0  0  0  0  0  0  0
    1.3900   34.2290   76.6640 C   0  0  0  0  0  0  0  0  0  0  0  0
    0.2900   35.0460   79.2600 C   0  0  0  0  0  0  0  0  0  0  0  0
    2.6320   34.8730   80.3670 C   0  0  0  0  0  0  0  0  0  0  0  0
    3.6280   34.6110   75.8700 C   0  0  0  0  0  0  0  0  0  0  0  0
    3.4460   35.2440   77.2540 C   0  0  0  0  0  0  0  0  0  0  0  0
    2.9080   36.6990   77.1960 C   0  0  0  0  0  0  0  0  0  0  0  0
    2.3680   34.3480   77.8460 C   0  0  0  0  0  0  0  0  0  0  0  0
    3.9820   37.7830   76.9260 C   0  0  0  0  0  0  0  0  0  0  0  0
    1.8160   35.1080   79.0810 C   0  0  0  0  0  0  0  0  0  0  0  0
    4.5980   33.4340   75.9500 C   0  0  0  0  0  0  0  0  0  0  0  0
    4.1950   32.3490   75.4800 O   0  0  0  0  0  0  0  0  0  0  0  0
    3.5520   38.8970   76.5570 O   0  0  0  0  0  0  0  0  0  0  0  0
    5.1780   37.4730   77.0980 O   0  0  0  0  0  0  0  0  0  0  0  0
    5.7690   33.6640   76.3540 O   0  0  0  0  0  0  0  0  0  0  0  0
  2  1  1  0
  5  1  1  0
  8  2  1  0
 10  3  2  0
 10  4  1  0
  6  5  1  0
 11  5  1  0
  7  6  1  0
  8  6  1  0
  9  7  1  0
 10  8  1  0
 13  9  1  0
 14  9  2  0
 12 11  2  0
 15 11  1  0
A    1
N
A    2
CD
A    3
CD1
A    4
CD2
A    5
CA
A    6
CB
A    7
CB1
A    8
CG
A    9
CG1
A   10
CG2
A   11
C
A   12
O
A   13
OD1
A   14
OD2
A   15
OXT
M  END
>  <Id>  (6) 
3C35_KAI_B_401

>  <ChainId>  (6) 
B

>  <AsymId>  (6) 
T

>  <SeqNum>  (6) 
401

>  <Name>  (6) 
3-(CARBOXYMETHYL)-4-ISOPROPENYLPROLINE

>  <SystematicName>  (6) 
(2S,3S,4S)-3-(carboxymethyl)-4-prop-1-en-2-yl-pyrrolidine-2-carboxylic acid

>  <Synonyms>  (6) 
KAINATE

>  <Type>  (6) 
NON-POLYMER

>  <Formula>  (6) 
C10 H15 N O4

>  <ObservedFormula>  (6) 
C10 N O4

>  <MolecularWeight>  (6) 
213.23

>  <ModifiedDate>  (6) 
2011-06-04

>  <Parent>  (6) 


>  <OneLetterCode>  (6) 


>  <SubcomponentList>  (6) 


>  <AmbiguousFlag>  (6) 
N

>  <InsertionCode>  (6) 


>  <InstanceId>  (6) 
3C35_KAI_B_401

>  <ChemCompId>  (6) 
KAI

>  <PdbId>  (6) 
3C35

>  <ResidueNumber>  (6) 
401

>  <InChI>  (6) 
InChI=1S/C10H15NO4/c1-5(2)7-4-11-9(10(14)15)6(7)3-8(12)13/h6-7,9,11H,1,3-4H2,2H3,(H,12,13)(H,14,15)/t6-,7+,9-/m0/s1

>  <InChIKey>  (6) 
VLSMHEGGTFMBBZ-OOZYFLPDSA-N

>  <SMILES>  (6) 
CC(=C)[C@H]1CN[C@@H]([C@H]1CC(=O)O)C(=O)O

>  <MissingHeavyAtoms>  (6) 
0

>  <Model>  (6) 
1

>  <AltIds>  (6) 


>  <pKI>  (6) 
7.13

>  <ChemblID>  (6) 
CHEMBL275040

>  <standardized_canonical_smiles>  (6) 
C=C(C)[C@H]1CN[C@H](C(=O)O)[C@H]1CC(=O)O

$$$$
3C31_KAI_B_401
     RDKit          3D

 15 15  0  0  0  0  0  0  0  0999 V2000
    1.8980   33.8740   75.5450 N   0  0  0  0  0  0  0  0  0  0  0  0
    1.0190   33.9190   76.7600 C   0  0  0  0  0  0  0  0  0  0  0  0
    0.0010   34.7810   79.3800 C   0  0  0  0  0  0  0  0  0  0  0  0
    2.3300   34.7250   80.4260 C   0  0  0  0  0  0  0  0  0  0  0  0
    3.2850   34.3050   75.9780 C   0  0  0  0  0  0  0  0  0  0  0  0
    3.1370   34.9420   77.3570 C   0  0  0  0  0  0  0  0  0  0  0  0
    2.6540   36.4170   77.2720 C   0  0  0  0  0  0  0  0  0  0  0  0
    2.0030   34.0530   77.9500 C   0  0  0  0  0  0  0  0  0  0  0  0
    3.7240   37.4340   77.0280 C   0  0  0  0  0  0  0  0  0  0  0  0
    1.4530   34.7190   79.2040 C   0  0  0  0  0  0  0  0  0  0  0  0
    4.2300   33.0890   75.9690 C   0  0  0  0  0  0  0  0  0  0  0  0
    3.7990   32.0550   75.4900 O   0  0  0  0  0  0  0  0  0  0  0  0
    3.3260   38.6070   76.7470 O   0  0  0  0  0  0  0  0  0  0  0  0
    4.9340   37.1080   77.1310 O   0  0  0  0  0  0  0  0  0  0  0  0
    5.3460   33.3270   76.4890 O   0  0  0  0  0  0  0  0  0  0  0  0
  2  1  1  0
  5  1  1  0
  8  2  1  0
 10  3  2  0
 10  4  1  0
  6  5  1  0
 11  5  1  0
  7  6  1  0
  8  6  1  0
  9  7  1  0
 10  8  1  0
 13  9  1  0
 14  9  2  0
 12 11  2  0
 15 11  1  0
A    1
N
A    2
CD
A    3
CD1
A    4
CD2
A    5
CA
A    6
CB
A    7
CB1
A    8
CG
A    9
CG1
A   10
CG2
A   11
C
A   12
O
A   13
OD1
A   14
OD2
A   15
OXT
M  END
>  <Id>  (7) 
3C31_KAI_B_401

>  <ChainId>  (7) 
B

>  <AsymId>  (7) 
N

>  <SeqNum>  (7) 
401

>  <Name>  (7) 
3-(CARBOXYMETHYL)-4-ISOPROPENYLPROLINE

>  <SystematicName>  (7) 
(2S,3S,4S)-3-(carboxymethyl)-4-prop-1-en-2-yl-pyrrolidine-2-carboxylic acid

>  <Synonyms>  (7) 
KAINATE

>  <Type>  (7) 
NON-POLYMER

>  <Formula>  (7) 
C10 H15 N O4

>  <ObservedFormula>  (7) 
C10 N O4

>  <MolecularWeight>  (7) 
213.23

>  <ModifiedDate>  (7) 
2011-06-04

>  <Parent>  (7) 


>  <OneLetterCode>  (7) 


>  <SubcomponentList>  (7) 


>  <AmbiguousFlag>  (7) 
N

>  <InsertionCode>  (7) 


>  <InstanceId>  (7) 
3C31_KAI_B_401

>  <ChemCompId>  (7) 
KAI

>  <PdbId>  (7) 
3C31

>  <ResidueNumber>  (7) 
401

>  <InChI>  (7) 
InChI=1S/C10H15NO4/c1-5(2)7-4-11-9(10(14)15)6(7)3-8(12)13/h6-7,9,11H,1,3-4H2,2H3,(H,12,13)(H,14,15)/t6-,7+,9-/m0/s1

>  <InChIKey>  (7) 
VLSMHEGGTFMBBZ-OOZYFLPDSA-N

>  <SMILES>  (7) 
CC(=C)[C@H]1CN[C@@H]([C@H]1CC(=O)O)C(=O)O

>  <MissingHeavyAtoms>  (7) 
0

>  <Model>  (7) 
1

>  <AltIds>  (7) 


>  <pKI>  (7) 
7.13

>  <ChemblID>  (7) 
CHEMBL275040

>  <standardized_canonical_smiles>  (7) 
C=C(C)[C@H]1CN[C@H](C(=O)O)[C@H]1CC(=O)O

$$$$
3C32_KAI_B_401
     RDKit          3D

 15 15  0  0  0  0  0  0  0  0999 V2000
    2.2130   34.1080   75.4110 N   0  0  0  0  0  0  0  0  0  0  0  0
    1.3110   34.0930   76.6640 C   0  0  0  0  0  0  0  0  0  0  0  0
    0.2010   35.0800   79.2010 C   0  0  0  0  0  0  0  0  0  0  0  0
    2.6280   34.9280   80.2730 C   0  0  0  0  0  0  0  0  0  0  0  0
    3.5710   34.5530   75.9150 C   0  0  0  0  0  0  0  0  0  0  0  0
    3.4180   35.1390   77.3120 C   0  0  0  0  0  0  0  0  0  0  0  0
    2.8990   36.6250   77.2120 C   0  0  0  0  0  0  0  0  0  0  0  0
    2.2720   34.2650   77.8460 C   0  0  0  0  0  0  0  0  0  0  0  0
    3.9660   37.7230   76.9490 C   0  0  0  0  0  0  0  0  0  0  0  0
    1.7100   35.0620   79.0470 C   0  0  0  0  0  0  0  0  0  0  0  0
    4.5500   33.3410   75.9290 C   0  0  0  0  0  0  0  0  0  0  0  0
    4.1570   32.2720   75.4210 O   0  0  0  0  0  0  0  0  0  0  0  0
    3.5320   38.8670   76.6100 O   0  0  0  0  0  0  0  0  0  0  0  0
    5.1770   37.3990   77.0330 O   0  0  0  0  0  0  0  0  0  0  0  0
    5.7280   33.5370   76.3640 O   0  0  0  0  0  0  0  0  0  0  0  0
  2  1  1  0
  5  1  1  0
  8  2  1  0
 10  3  2  0
 10  4  1  0
  6  5  1  0
 11  5  1  0
  7  6  1  0
  8  6  1  0
  9  7  1  0
 10  8  1  0
 13  9  1  0
 14  9  2  0
 12 11  2  0
 15 11  1  0
A    1
N
A    2
CD
A    3
CD1
A    4
CD2
A    5
CA
A    6
CB
A    7
CB1
A    8
CG
A    9
CG1
A   10
CG2
A   11
C
A   12
O
A   13
OD1
A   14
OD2
A   15
OXT
M  END
>  <Id>  (8) 
3C32_KAI_B_401

>  <ChainId>  (8) 
B

>  <AsymId>  (8) 
K

>  <SeqNum>  (8) 
401

>  <Name>  (8) 
3-(CARBOXYMETHYL)-4-ISOPROPENYLPROLINE

>  <SystematicName>  (8) 
(2S,3S,4S)-3-(carboxymethyl)-4-prop-1-en-2-yl-pyrrolidine-2-carboxylic acid

>  <Synonyms>  (8) 
KAINATE

>  <Type>  (8) 
NON-POLYMER

>  <Formula>  (8) 
C10 H15 N O4

>  <ObservedFormula>  (8) 
C10 N O4

>  <MolecularWeight>  (8) 
213.23

>  <ModifiedDate>  (8) 
2011-06-04

>  <Parent>  (8) 


>  <OneLetterCode>  (8) 


>  <SubcomponentList>  (8) 


>  <AmbiguousFlag>  (8) 
N

>  <InsertionCode>  (8) 


>  <InstanceId>  (8) 
3C32_KAI_B_401

>  <ChemCompId>  (8) 
KAI

>  <PdbId>  (8) 
3C32

>  <ResidueNumber>  (8) 
401

>  <InChI>  (8) 
InChI=1S/C10H15NO4/c1-5(2)7-4-11-9(10(14)15)6(7)3-8(12)13/h6-7,9,11H,1,3-4H2,2H3,(H,12,13)(H,14,15)/t6-,7+,9-/m0/s1

>  <InChIKey>  (8) 
VLSMHEGGTFMBBZ-OOZYFLPDSA-N

>  <SMILES>  (8) 
CC(=C)[C@H]1CN[C@@H]([C@H]1CC(=O)O)C(=O)O

>  <MissingHeavyAtoms>  (8) 
0

>  <Model>  (8) 
1

>  <AltIds>  (8) 


>  <pKI>  (8) 
7.13

>  <ChemblID>  (8) 
CHEMBL275040

>  <standardized_canonical_smiles>  (8) 
C=C(C)[C@H]1CN[C@H](C(=O)O)[C@H]1CC(=O)O

$$$$
3C33_KAI_B_401
     RDKit          3D

 15 15  0  0  0  0  0  0  0  0999 V2000
    2.1570   34.3010   75.3920 N   0  0  0  0  0  0  0  0  0  0  0  0
    1.2210   34.3540   76.6100 C   0  0  0  0  0  0  0  0  0  0  0  0
    0.1410   35.2640   79.2300 C   0  0  0  0  0  0  0  0  0  0  0  0
    2.5380   35.1530   80.2840 C   0  0  0  0  0  0  0  0  0  0  0  0
    3.4950   34.8110   75.8370 C   0  0  0  0  0  0  0  0  0  0  0  0
    3.3020   35.3930   77.2270 C   0  0  0  0  0  0  0  0  0  0  0  0
    2.8010   36.8670   77.1370 C   0  0  0  0  0  0  0  0  0  0  0  0
    2.1860   34.5100   77.8100 C   0  0  0  0  0  0  0  0  0  0  0  0
    3.8850   37.9520   76.9200 C   0  0  0  0  0  0  0  0  0  0  0  0
    1.6360   35.2920   79.0290 C   0  0  0  0  0  0  0  0  0  0  0  0
    4.4820   33.5900   75.9080 C   0  0  0  0  0  0  0  0  0  0  0  0
    4.1110   32.5120   75.4380 O   0  0  0  0  0  0  0  0  0  0  0  0
    3.4540   39.0860   76.5900 O   0  0  0  0  0  0  0  0  0  0  0  0
    5.1000   37.5950   77.0410 O   0  0  0  0  0  0  0  0  0  0  0  0
    5.6560   33.7930   76.3170 O   0  0  0  0  0  0  0  0  0  0  0  0
  2  1  1  0
  5  1  1  0
  8  2  1  0
 10  3  2  0
 10  4  1  0
  6  5  1  0
 11  5  1  0
  7  6  1  0
  8  6  1  0
  9  7  1  0
 10  8  1  0
 13  9  1  0
 14  9  2  0
 12 11  2  0
 15 11  1  0
A    1
N
A    2
CD
A    3
CD1
A    4
CD2
A    5
CA
A    6
CB
A    7
CB1
A    8
CG
A    9
CG1
A   10
CG2
A   11
C
A   12
O
A   13
OD1
A   14
OD2
A   15
OXT
M  END
>  <Id>  (9) 
3C33_KAI_B_401

>  <ChainId>  (9) 
B

>  <AsymId>  (9) 
M

>  <SeqNum>  (9) 
401

>  <Name>  (9) 
3-(CARBOXYMETHYL)-4-ISOPROPENYLPROLINE

>  <SystematicName>  (9) 
(2S,3S,4S)-3-(carboxymethyl)-4-prop-1-en-2-yl-pyrrolidine-2-carboxylic acid

>  <Synonyms>  (9) 
KAINATE

>  <Type>  (9) 
NON-POLYMER

>  <Formula>  (9) 
C10 H15 N O4

>  <ObservedFormula>  (9) 
C10 N O4

>  <MolecularWeight>  (9) 
213.23

>  <ModifiedDate>  (9) 
2011-06-04

>  <Parent>  (9) 


>  <OneLetterCode>  (9) 


>  <SubcomponentList>  (9) 


>  <AmbiguousFlag>  (9) 
N

>  <InsertionCode>  (9) 


>  <InstanceId>  (9) 
3C33_KAI_B_401

>  <ChemCompId>  (9) 
KAI

>  <PdbId>  (9) 
3C33

>  <ResidueNumber>  (9) 
401

>  <InChI>  (9) 
InChI=1S/C10H15NO4/c1-5(2)7-4-11-9(10(14)15)6(7)3-8(12)13/h6-7,9,11H,1,3-4H2,2H3,(H,12,13)(H,14,15)/t6-,7+,9-/m0/s1

>  <InChIKey>  (9) 
VLSMHEGGTFMBBZ-OOZYFLPDSA-N

>  <SMILES>  (9) 
CC(=C)[C@H]1CN[C@@H]([C@H]1CC(=O)O)C(=O)O

>  <MissingHeavyAtoms>  (9) 
0

>  <Model>  (9) 
1

>  <AltIds>  (9) 


>  <pKI>  (9) 
7.13

>  <ChemblID>  (9) 
CHEMBL275040

>  <standardized_canonical_smiles>  (9) 
C=C(C)[C@H]1CN[C@H](C(=O)O)[C@H]1CC(=O)O

$$$$
3C34_KAI_B_401
     RDKit          3D

 15 15  0  0  0  0  0  0  0  0999 V2000
    2.2320   34.4950   75.3570 N   0  0  0  0  0  0  0  0  0  0  0  0
    1.2630   34.5500   76.5490 C   0  0  0  0  0  0  0  0  0  0  0  0
    0.2440   35.3440   79.2180 C   0  0  0  0  0  0  0  0  0  0  0  0
    2.6710   35.1960   80.2320 C   0  0  0  0  0  0  0  0  0  0  0  0
    3.5880   34.9260   75.8450 C   0  0  0  0  0  0  0  0  0  0  0  0
    3.3860   35.5480   77.2290 C   0  0  0  0  0  0  0  0  0  0  0  0
    2.9040   37.0030   77.0890 C   0  0  0  0  0  0  0  0  0  0  0  0
    2.2570   34.6660   77.7550 C   0  0  0  0  0  0  0  0  0  0  0  0
    3.9940   38.0800   76.8630 C   0  0  0  0  0  0  0  0  0  0  0  0
    1.7450   35.4140   79.0040 C   0  0  0  0  0  0  0  0  0  0  0  0
    4.5760   33.7320   75.9120 C   0  0  0  0  0  0  0  0  0  0  0  0
    4.1770   32.6530   75.4370 O   0  0  0  0  0  0  0  0  0  0  0  0
    3.5700   39.2200   76.5550 O   0  0  0  0  0  0  0  0  0  0  0  0
    5.1950   37.7440   76.9700 O   0  0  0  0  0  0  0  0  0  0  0  0
    5.7650   33.9590   76.2490 O   0  0  0  0  0  0  0  0  0  0  0  0
  2  1  1  0
  5  1  1  0
  8  2  1  0
 10  3  2  0
 10  4  1  0
  6  5  1  0
 11  5  1  0
  7  6  1  0
  8  6  1  0
  9  7  1  0
 10  8  1  0
 13  9  1  0
 14  9  2  0
 12 11  2  0
 15 11  1  0
A    1
N
A    2
CD
A    3
CD1
A    4
CD2
A    5
CA
A    6
CB
A    7
CB1
A    8
CG
A    9
CG1
A   10
CG2
A   11
C
A   12
O
A   13
OD1
A   14
OD2
A   15
OXT
M  END
>  <Id>  (10) 
3C34_KAI_B_401

>  <ChainId>  (10) 
B

>  <AsymId>  (10) 
P

>  <SeqNum>  (10) 
401

>  <Name>  (10) 
3-(CARBOXYMETHYL)-4-ISOPROPENYLPROLINE

>  <SystematicName>  (10) 
(2S,3S,4S)-3-(carboxymethyl)-4-prop-1-en-2-yl-pyrrolidine-2-carboxylic acid

>  <Synonyms>  (10) 
KAINATE

>  <Type>  (10) 
NON-POLYMER

>  <Formula>  (10) 
C10 H15 N O4

>  <ObservedFormula>  (10) 
C10 N O4

>  <MolecularWeight>  (10) 
213.23

>  <ModifiedDate>  (10) 
2011-06-04

>  <Parent>  (10) 


>  <OneLetterCode>  (10) 


>  <SubcomponentList>  (10) 


>  <AmbiguousFlag>  (10) 
N

>  <InsertionCode>  (10) 


>  <InstanceId>  (10) 
3C34_KAI_B_401

>  <ChemCompId>  (10) 
KAI

>  <PdbId>  (10) 
3C34

>  <ResidueNumber>  (10) 
401

>  <InChI>  (10) 
InChI=1S/C10H15NO4/c1-5(2)7-4-11-9(10(14)15)6(7)3-8(12)13/h6-7,9,11H,1,3-4H2,2H3,(H,12,13)(H,14,15)/t6-,7+,9-/m0/s1

>  <InChIKey>  (10) 
VLSMHEGGTFMBBZ-OOZYFLPDSA-N

>  <SMILES>  (10) 
CC(=C)[C@H]1CN[C@@H]([C@H]1CC(=O)O)C(=O)O

>  <MissingHeavyAtoms>  (10) 
0

>  <Model>  (10) 
1

>  <AltIds>  (10) 


>  <pKI>  (10) 
7.13

>  <ChemblID>  (10) 
CHEMBL275040

>  <standardized_canonical_smiles>  (10) 
C=C(C)[C@H]1CN[C@H](C(=O)O)[C@H]1CC(=O)O

$$$$
3C36_KAI_B_401
     RDKit          3D

 15 15  0  0  0  0  0  0  0  0999 V2000
    2.1670   34.2260   75.4050 N   0  0  0  0  0  0  0  0  0  0  0  0
    1.2490   34.2820   76.6320 C   0  0  0  0  0  0  0  0  0  0  0  0
    0.1620   35.0850   79.2090 C   0  0  0  0  0  0  0  0  0  0  0  0
    2.5560   35.0160   80.2730 C   0  0  0  0  0  0  0  0  0  0  0  0
    3.5540   34.6580   75.8820 C   0  0  0  0  0  0  0  0  0  0  0  0
    3.3710   35.2460   77.2810 C   0  0  0  0  0  0  0  0  0  0  0  0
    2.9030   36.7340   77.1270 C   0  0  0  0  0  0  0  0  0  0  0  0
    2.2300   34.3700   77.8460 C   0  0  0  0  0  0  0  0  0  0  0  0
    3.9460   37.8380   76.8950 C   0  0  0  0  0  0  0  0  0  0  0  0
    1.6560   35.1600   79.0320 C   0  0  0  0  0  0  0  0  0  0  0  0
    4.5160   33.4410   75.8990 C   0  0  0  0  0  0  0  0  0  0  0  0
    4.1110   32.3660   75.4210 O   0  0  0  0  0  0  0  0  0  0  0  0
    3.4740   38.9720   76.5690 O   0  0  0  0  0  0  0  0  0  0  0  0
    5.1680   37.4830   76.9820 O   0  0  0  0  0  0  0  0  0  0  0  0
    5.7000   33.6470   76.3110 O   0  0  0  0  0  0  0  0  0  0  0  0
  2  1  1  0
  5  1  1  0
  8  2  1  0
 10  3  2  0
 10  4  1  0
  6  5  1  0
 11  5  1  0
  7  6  1  0
  8  6  1  0
  9  7  1  0
 10  8  1  0
 13  9  1  0
 14  9  2  0
 12 11  2  0
 15 11  1  0
A    1
N
A    2
CD
A    3
CD1
A    4
CD2
A    5
CA
A    6
CB
A    7
CB1
A    8
CG
A    9
CG1
A   10
CG2
A   11
C
A   12
O
A   13
OD1
A   14
OD2
A   15
OXT
M  END
>  <Id>  (11) 
3C36_KAI_B_401

>  <ChainId>  (11) 
B

>  <AsymId>  (11) 
L

>  <SeqNum>  (11) 
401

>  <Name>  (11) 
3-(CARBOXYMETHYL)-4-ISOPROPENYLPROLINE

>  <SystematicName>  (11) 
(2S,3S,4S)-3-(carboxymethyl)-4-prop-1-en-2-yl-pyrrolidine-2-carboxylic acid

>  <Synonyms>  (11) 
KAINATE

>  <Type>  (11) 
NON-POLYMER

>  <Formula>  (11) 
C10 H15 N O4

>  <ObservedFormula>  (11) 
C10 N O4

>  <MolecularWeight>  (11) 
213.23

>  <ModifiedDate>  (11) 
2011-06-04

>  <Parent>  (11) 


>  <OneLetterCode>  (11) 


>  <SubcomponentList>  (11) 


>  <AmbiguousFlag>  (11) 
N

>  <InsertionCode>  (11) 


>  <InstanceId>  (11) 
3C36_KAI_B_401

>  <ChemCompId>  (11) 
KAI

>  <PdbId>  (11) 
3C36

>  <ResidueNumber>  (11) 
401

>  <InChI>  (11) 
InChI=1S/C10H15NO4/c1-5(2)7-4-11-9(10(14)15)6(7)3-8(12)13/h6-7,9,11H,1,3-4H2,2H3,(H,12,13)(H,14,15)/t6-,7+,9-/m0/s1

>  <InChIKey>  (11) 
VLSMHEGGTFMBBZ-OOZYFLPDSA-N

>  <SMILES>  (11) 
CC(=C)[C@H]1CN[C@@H]([C@H]1CC(=O)O)C(=O)O

>  <MissingHeavyAtoms>  (11) 
0

>  <Model>  (11) 
1

>  <AltIds>  (11) 


>  <pKI>  (11) 
7.13

>  <ChemblID>  (11) 
CHEMBL275040

>  <standardized_canonical_smiles>  (11) 
C=C(C)[C@H]1CN[C@H](C(=O)O)[C@H]1CC(=O)O

$$$$
2WKY_IBC_B_1257
     RDKit          3D

 17 18  0  0  0  0  0  0  0  0999 V2000
   37.2920    5.9830   45.4570 O   0  0  0  0  0  0  0  0  0  0  0  0
   36.5040    5.2510   46.0950 C   0  0  0  0  0  0  0  0  0  0  0  0
   35.5190    5.6400   46.7580 O   0  0  0  0  0  0  0  0  0  0  0  0
   36.7560    3.7440   46.0480 C   0  0  0  0  0  0  0  0  0  0  0  0
   35.6930    3.0660   46.8030 N   0  0  0  0  0  0  0  0  0  0  0  0
   36.7320    3.2710   44.5920 C   0  0  0  0  0  0  0  0  0  0  0  0
   36.7010    1.7460   44.4850 C   0  0  0  0  0  0  0  0  0  0  0  0
   37.8740    1.0650   44.8020 C   0  0  0  0  0  0  0  0  0  0  0  0
   35.5090    1.1400   44.1030 C   0  0  0  0  0  0  0  0  0  0  0  0
   35.2200   -0.2100   43.9260 C   0  0  0  0  0  0  0  0  0  0  0  0
   36.0290   -1.3320   44.0710 C   0  0  0  0  0  0  0  0  0  0  0  0
   36.8910   -1.3060   45.3360 C   0  0  0  0  0  0  0  0  0  0  0  0
   37.9940   -0.2530   45.2110 C   0  0  0  0  0  0  0  0  0  0  0  0
   39.3120   -0.5050   45.4680 O   0  0  0  0  0  0  0  0  0  0  0  0
   40.0300    0.6960   45.2060 N   0  0  0  0  0  0  0  0  0  0  0  0
   39.1490    1.6110   44.8120 C   0  0  0  0  0  0  0  0  0  0  0  0
   39.4390    2.7670   44.4980 O   0  0  0  0  0  0  0  0  0  0  0  0
  2  1  1  0
  3  2  2  0
  4  2  1  0
  5  4  1  0
  6  4  1  0
  7  6  1  0
  8  7  1  0
  9  7  2  0
 13  8  2  0
 16  8  1  0
 10  9  1  0
 11 10  1  0
 12 11  1  0
 13 12  1  0
 14 13  1  0
 15 14  1  0
 16 15  2  0
 17 16  1  0
A    1
O4
A    2
C11
A    3
O3
A    4
C10
A    5
N2
A    6
C9
A    7
C4
A    8
C1
A    9
C5
A   10
C6
A   11
C7
A   12
C8
A   13
C3
A   14
O1
A   15
N1
A   16
C2
A   17
O2
M  END
>  <Id>  (12) 
2WKY_IBC_B_1257

>  <ChainId>  (12) 
B

>  <AsymId>  (12) 
F

>  <SeqNum>  (12) 
1257

>  <Name>  (12) 
3-(3-HYDROXY-7,8-DIHYDRO-6H-CYCLOHEPTA[D]ISOXAZOL-4-YL)-L-ALANINE

>  <SystematicName>  (12) 
(2S)-2-amino-3-(3-hydroxy-7,8-dihydro-6H-cyclohepta[d][1,2]oxazol-4-yl)propanoic acid

>  <Synonyms>  (12) 
2-AMINO-3-(3-HYDROXY-7,8-DIHYDRO-6H-CYCLOHEPTA[D]-4-ISOXAZOLYL)PROPIONIC ACID

>  <Type>  (12) 
NON-POLYMER

>  <Formula>  (12) 
C11 H14 N2 O4

>  <ObservedFormula>  (12) 
C11 N2 O4

>  <MolecularWeight>  (12) 
238.24

>  <ModifiedDate>  (12) 
2011-06-04

>  <Parent>  (12) 


>  <OneLetterCode>  (12) 


>  <SubcomponentList>  (12) 


>  <AmbiguousFlag>  (12) 
N

>  <InsertionCode>  (12) 


>  <InstanceId>  (12) 
2WKY_IBC_B_1257

>  <ChemCompId>  (12) 
IBC

>  <PdbId>  (12) 
2WKY

>  <ResidueNumber>  (12) 
1257

>  <InChI>  (12) 
InChI=1S/C11H14N2O4/c12-7(11(15)16)5-6-3-1-2-4-8-9(6)10(14)13-17-8/h3,7H,1-2,4-5,12H2,(H,13,14)(H,15,16)/t7-/m0/s1

>  <InChIKey>  (12) 
HJEPOXZLPHUVFE-ZETCQYMHSA-N

>  <SMILES>  (12) 
C1CC=C(c2c(onc2O)C1)C[C@@H](C(=O)O)N

>  <MissingHeavyAtoms>  (12) 
0

>  <Model>  (12) 
1

>  <AltIds>  (12) 


>  <pKI>  (12) 
8.59

>  <ChemblID>  (12) 
CHEMBL28472

>  <standardized_canonical_smiles>  (12) 
N[C@@H](CC1=CCCCc2o[nH]c(=O)c21)C(=O)O

$$$$
1VSO_AT1_A_258
     RDKit          3D

 21 21  0  0  0  0  0  0  0  0999 V2000
   41.8390    5.0010    5.1840 N   0  0  0  0  0  0  0  0  0  0  0  0
   39.4930    5.8860    5.5700 C   0  0  0  0  0  0  0  0  0  0  0  0
   41.0750    4.6780    2.6580 O   0  0  0  0  0  0  0  0  0  0  0  0
   40.3370    4.7540    4.9780 C   0  0  0  0  0  0  0  0  0  0  0  0
   40.0710    4.5890    3.4290 C   0  0  0  0  0  0  0  0  0  0  0  0
   38.8910    4.3770    3.0650 O   0  0  0  0  0  0  0  0  0  0  0  0
   39.4480    6.2390    9.2710 O   0  0  0  0  0  0  0  0  0  0  0  0
   38.0380    3.8840    7.1560 O   0  0  0  0  0  0  0  0  0  0  0  0
   38.6860    5.0620    9.0890 N   0  0  0  0  0  0  0  0  0  0  0  0
   40.6750    8.0160    8.2000 C   0  0  0  0  0  0  0  0  0  0  0  0
   37.2820    2.9370    7.9810 C   0  0  0  0  0  0  0  0  0  0  0  0
   38.6710    4.8910    7.7880 C   0  0  0  0  0  0  0  0  0  0  0  0
   39.3920    5.8970    7.0660 C   0  0  0  0  0  0  0  0  0  0  0  0
   39.8570    6.7270    8.0670 C   0  0  0  0  0  0  0  0  0  0  0  0
   39.7510    9.0910    8.8210 C   0  0  0  0  0  0  0  0  0  0  0  0
   41.8670    7.7950    9.1260 C   0  0  0  0  0  0  0  0  0  0  0  0
   41.1810    8.5560    6.8690 C   0  0  0  0  0  0  0  0  0  0  0  0
   36.2720    1.9120    6.8820 P   0  0  0  0  0  0  0  0  0  0  0  0
   37.1590    1.1790    5.9410 O   0  0  0  0  0  0  0  0  0  0  0  0
   35.4750    1.0470    7.8200 O   0  0  0  0  0  0  0  0  0  0  0  0
   35.2950    2.8940    6.1530 O   0  0  0  0  0  0  0  0  0  0  0  0
  4  1  1  0
  4  2  1  0
 13  2  1  0
  5  3  1  0
  5  4  1  0
  6  5  2  0
  9  7  1  0
 14  7  1  0
 11  8  1  0
 12  8  1  0
 12  9  2  0
 14 10  1  0
 15 10  1  0
 16 10  1  0
 17 10  1  0
 18 11  1  0
 13 12  1  0
 14 13  2  0
 19 18  2  0
 20 18  1  0
 21 18  1  0
A    1
N
A    2
C
A    3
O
A    4
C1
A    5
C2
A    6
O1
A    7
O2
A    8
O3
A    9
N1
A   10
C3
A   11
C4
A   12
C5
A   13
C6
A   14
C7
A   15
C9
A   16
C10
A   17
C11
A   18
P
A   19
O4
A   20
O5
A   21
O6
M  END
>  <Id>  (13) 
1VSO_AT1_A_258

>  <ChainId>  (13) 
A

>  <AsymId>  (13) 
B

>  <SeqNum>  (13) 
258

>  <Name>  (13) 
(S)-2-AMINO-3-(5-TERT-BUTYL-3-(PHOSPHONOMETHOXY)-4-ISOXAZOLYL)PROPIONIC ACID

>  <SystematicName>  (13) 
(2S)-2-amino-3-[5-tert-butyl-3-(phosphonomethoxy)-1,2-oxazol-4-yl]propanoic acid

>  <Synonyms>  (13) 


>  <Type>  (13) 
NON-POLYMER

>  <Formula>  (13) 
C11 H19 N2 O7 P

>  <ObservedFormula>  (13) 
P C11 N2 O7

>  <MolecularWeight>  (13) 
322.252

>  <ModifiedDate>  (13) 
2011-06-04

>  <Parent>  (13) 


>  <OneLetterCode>  (13) 


>  <SubcomponentList>  (13) 


>  <AmbiguousFlag>  (13) 
N

>  <InsertionCode>  (13) 


>  <InstanceId>  (13) 
1VSO_AT1_A_258

>  <ChemCompId>  (13) 
AT1

>  <PdbId>  (13) 
1VSO

>  <ResidueNumber>  (13) 
258

>  <InChI>  (13) 
InChI=1S/C11H19N2O7P/c1-11(2,3)8-6(4-7(12)10(14)15)9(13-20-8)19-5-21(16,17)18/h7H,4-5,12H2,1-3H3,(H,14,15)(H2,16,17,18)/t7-/m0/s1

>  <InChIKey>  (13) 
AGSOOCUNMTYPSE-ZETCQYMHSA-N

>  <SMILES>  (13) 
CC(C)(C)c1c(c(no1)OCP(=O)(O)O)C[C@@H](C(=O)O)N

>  <MissingHeavyAtoms>  (13) 
0

>  <Model>  (13) 
1

>  <AltIds>  (13) 


>  <pKI>  (13) 
5.54

>  <ChemblID>  (13) 
CHEMBL594840

>  <standardized_canonical_smiles>  (13) 
CC(C)(C)c1onc(OCP(=O)(O)O)c1C[C@H](N)C(=O)O

$$$$
3S2V_3HU_B_258
     RDKit          3D

 26 28  0  0  0  0  0  0  0  0999 V2000
   27.3960   35.0470   17.5270 C   0  0  0  0  0  0  0  0  0  0  0  0
   29.7510   35.1150   16.9500 N   0  0  0  0  0  0  0  0  0  0  0  0
   27.6360   36.1780   17.9890 O   0  0  0  0  0  0  0  0  0  0  0  0
   28.5570   34.2560   16.9420 C   0  0  0  0  0  0  0  0  0  0  0  0
   28.8000   32.9930   17.7640 C   0  0  0  0  0  0  0  0  0  0  0  0
   30.1620   29.8740   11.3040 O   0  0  0  0  0  0  0  0  0  0  0  0
   32.7190   30.1160   15.2870 O   0  0  0  0  0  0  0  0  0  0  0  0
   28.5160   31.6640   15.4030 O   0  0  0  0  0  0  0  0  0  0  0  0
   29.5220   27.9260   10.4980 O   0  0  0  0  0  0  0  0  0  0  0  0
   29.4500   26.7620   14.9220 C   0  0  0  0  0  0  0  0  0  0  0  0
   29.8200   28.0250   15.1490 C   0  0  0  0  0  0  0  0  0  0  0  0
   33.3060   31.3760   17.7300 C   0  0  0  0  0  0  0  0  0  0  0  0
   31.4780   32.7090   18.8740 C   0  0  0  0  0  0  0  0  0  0  0  0
   30.3890   30.2210   14.0140 C   0  0  0  0  0  0  0  0  0  0  0  0
   33.0890   32.2970   19.1110 S   0  0  0  0  0  0  0  0  0  0  0  0
   29.3020   26.5670   13.2340 S   0  0  0  0  0  0  0  0  0  0  0  0
   29.8110   28.6880   11.4450 C   0  0  0  0  0  0  0  0  0  0  0  0
   29.9780   28.7830   14.0450 C   0  0  0  0  0  0  0  0  0  0  0  0
   29.7150   28.1140   12.8570 C   0  0  0  0  0  0  0  0  0  0  0  0
   31.8610   30.7640   15.8790 C   0  0  0  0  0  0  0  0  0  0  0  0
   29.6220   31.5850   15.9310 C   0  0  0  0  0  0  0  0  0  0  0  0
   32.1410   31.3950   17.0790 C   0  0  0  0  0  0  0  0  0  0  0  0
   31.1200   32.1470   17.7200 C   0  0  0  0  0  0  0  0  0  0  0  0
   30.6150   30.8490   15.3170 N   0  0  0  0  0  0  0  0  0  0  0  0
   29.8760   32.2250   17.1290 N   0  0  0  0  0  0  0  0  0  0  0  0
   26.2820   34.5070   17.4450 O   0  0  0  0  0  0  0  0  0  0  0  0
  3  1  1  0
  4  1  1  0
 26  1  2  0
  4  2  1  0
  5  4  1  0
 25  5  1  0
 17  6  2  0
 20  7  2  0
 21  8  2  0
 17  9  1  0
 11 10  2  0
 16 10  1  0
 18 11  1  0
 15 12  1  0
 22 12  2  0
 15 13  1  0
 23 13  2  0
 18 14  1  0
 24 14  1  0
 19 16  1  0
 19 17  1  0
 19 18  2  0
 22 20  1  0
 24 20  1  0
 24 21  1  0
 25 21  1  0
 23 22  1  0
 25 23  1  0
A    1
C
A    2
N
A    3
O
A    4
CA
A    5
CB
A    6
OAB
A    7
OAD
A    8
OAE
A    9
OAF
A   10
CAH
A   11
CAI
A   12
CAJ
A   13
CAK
A   14
CAL
A   15
SAN
A   16
SAO
A   17
CAP
A   18
CAR
A   19
CAS
A   20
CAT
A   21
CAU
A   22
CAV
A   23
CAW
A   24
NAY
A   25
NAZ
A   26
OXT
M  END
>  <Id>  (14) 
3S2V_3HU_B_258

>  <ChainId>  (14) 
B

>  <AsymId>  (14) 
F

>  <SeqNum>  (14) 
258

>  <Name>  (14) 
(S)-1-(2'-AMINO-2'-CARBOXYETHYL)-3-[(2-CARBOXYTHIEN-3-YL)METHYL]THIENO[3,4-D]PYRIMIDIN-2,4-DIONE

>  <SystematicName>  (14) 
3-[[1-[(2S)-2-azanyl-3-oxidanyl-3-oxidanylidene-propyl]-2,4-bis(oxidanylidene)thieno[3,4-d]pyrimidin-3-yl]methyl]thiophene-2-carboxylic acid

>  <Synonyms>  (14) 


>  <Type>  (14) 
NON-POLYMER

>  <Formula>  (14) 
C15 H13 N3 O6 S2

>  <ObservedFormula>  (14) 
C15 S2 N3 O6

>  <MolecularWeight>  (14) 
395.41

>  <ModifiedDate>  (14) 
2011-06-17

>  <Parent>  (14) 


>  <OneLetterCode>  (14) 


>  <SubcomponentList>  (14) 


>  <AmbiguousFlag>  (14) 
N

>  <InsertionCode>  (14) 


>  <InstanceId>  (14) 
3S2V_3HU_B_258

>  <ChemCompId>  (14) 
3HU

>  <PdbId>  (14) 
3S2V

>  <ResidueNumber>  (14) 
258

>  <InChI>  (14) 
InChI=1S/C15H13N3O6S2/c16-9(13(20)21)4-17-10-6-25-5-8(10)12(19)18(15(17)24)3-7-1-2-26-11(7)14(22)23/h1-2,5-6,9H,3-4,16H2,(H,20,21)(H,22,23)/t9-/m0/s1

>  <InChIKey>  (14) 
LSNSPQPOGKSTHQ-VIFPVBQESA-N

>  <SMILES>  (14) 
c1csc(c1CN2C(=O)c3cscc3N(C2=O)C[C@@H](C(=O)O)N)C(=O)O

>  <MissingHeavyAtoms>  (14) 
0

>  <Model>  (14) 
1

>  <AltIds>  (14) 


>  <pKI>  (14) 
6.8

>  <ChemblID>  (14) 
CHEMBL1738726

>  <standardized_canonical_smiles>  (14) 
N[C@@H](Cn1c(=O)n(Cc2ccsc2C(=O)O)c(=O)c2cscc21)C(=O)O

$$$$
4DLD_TZG_B_301
     RDKit          3D

 21 21  0  0  0  0  0  0  0  0999 V2000
    2.6410   37.3030  137.2250 N   0  0  0  0  0  0  0  0  0  0  0  0
    0.2020   34.8830  136.0300 C   0  0  0  0  0  0  0  0  0  0  0  0
    0.8580   36.0980  136.2210 C   0  0  0  0  0  0  0  0  0  0  0  0
    1.9930   36.1480  137.0220 C   0  0  0  0  0  0  0  0  0  0  0  0
   -0.1180   32.4380  136.3640 C   0  0  0  0  0  0  0  0  0  0  0  0
    0.4230   31.7070  135.1410 C   0  0  0  0  0  0  0  0  0  0  0  0
    3.8430   32.2850  137.9580 C   0  0  0  0  0  0  0  0  0  0  0  0
   -1.1910   30.3300  134.0820 O   0  0  0  0  0  0  0  0  0  0  0  0
   -0.3530   30.3840  134.9920 C   0  0  0  0  0  0  0  0  0  0  0  0
   -0.1030   29.4740  135.8090 O   0  0  0  0  0  0  0  0  0  0  0  0
    0.2460   32.5450  133.9410 N   0  0  0  0  0  0  0  0  0  0  0  0
    0.6690   33.7220  136.6260 C   0  0  0  0  0  0  0  0  0  0  0  0
    0.2400   37.5140  135.4460 Cl  0  0  0  0  0  0  0  0  0  0  0  0
    4.0380   37.2930  137.4720 O   0  0  0  0  0  0  0  0  0  0  0  0
    1.9410   38.5370  137.2210 O   0  0  0  0  0  0  0  0  0  0  0  0
    2.4520   34.9830  137.6270 C   0  0  0  0  0  0  0  0  0  0  0  0
    1.8020   33.7620  137.4300 C   0  0  0  0  0  0  0  0  0  0  0  0
    2.3460   32.5090  138.1360 C   0  0  0  0  0  0  0  0  0  0  0  0
    4.1300   31.7870  136.5510 C   0  0  0  0  0  0  0  0  0  0  0  0
    4.6410   32.6050  135.7610 O   0  0  0  0  0  0  0  0  0  0  0  0
    3.8310   30.6050  136.2830 O   0  0  0  0  0  0  0  0  0  0  0  0
  4  1  1  0
 14  1  1  0
 15  1  2  0
  3  2  2  0
 12  2  1  0
  4  3  1  0
 13  3  1  0
 16  4  2  0
  6  5  1  0
 12  5  1  0
  9  6  1  0
 11  6  1  0
 18  7  1  0
 19  7  1  0
  9  8  2  0
 10  9  1  0
 17 12  2  0
 17 16  1  0
 18 17  1  0
 20 19  2  0
 21 19  1  0
M  CHG  2   1   1  14  -1
A    1
N1
A    2
C4
A    3
C5
A    4
C6
A    5
C7
A    6
C8
A    7
C10
A    8
O4
A    9
C12
A   10
O5
A   11
N2
A   12
C3
A   13
CL1
A   14
O1
A   15
O2
A   16
C1
A   17
C2
A   18
C9
A   19
C11
A   20
O7
A   21
O6
M  END
>  <Id>  (15) 
4DLD_TZG_B_301

>  <ChainId>  (15) 
B

>  <AsymId>  (15) 
E

>  <SeqNum>  (15) 
301

>  <Name>  (15) 
(S)-2-amino-3-(2-(2-carboxyethyl)-5-chloro-4-nitrophenyl)propionic acid

>  <SystematicName>  (15) 
(2S)-2-azanyl-3-[2-(2-carboxyethyl)-5-chloranyl-4-nitro-phenyl]propanoic acid

>  <Synonyms>  (15) 


>  <Type>  (15) 
NON-POLYMER

>  <Formula>  (15) 
C12 H13 Cl N2 O6

>  <ObservedFormula>  (15) 
C12 Cl N2 O6

>  <MolecularWeight>  (15) 
316.694

>  <ModifiedDate>  (15) 
2011-10-21

>  <Parent>  (15) 


>  <OneLetterCode>  (15) 


>  <SubcomponentList>  (15) 


>  <AmbiguousFlag>  (15) 
N

>  <InsertionCode>  (15) 


>  <InstanceId>  (15) 
4DLD_TZG_B_301

>  <ChemCompId>  (15) 
TZG

>  <PdbId>  (15) 
4DLD

>  <ResidueNumber>  (15) 
301

>  <InChI>  (15) 
InChI=1S/C12H13ClN2O6/c13-8-3-7(4-9(14)12(18)19)6(1-2-11(16)17)5-10(8)15(20)21/h3,5,9H,1-2,4,14H2,(H,16,17)(H,18,19)/t9-/m0/s1

>  <InChIKey>  (15) 
DRCLPFURMHGQPC-VIFPVBQESA-N

>  <SMILES>  (15) 
c1c(c(cc(c1[N+](=O)[O-])Cl)C[C@@H](C(=O)O)N)CCC(=O)O

>  <MissingHeavyAtoms>  (15) 
0

>  <Model>  (15) 
1

>  <AltIds>  (15) 


>  <pKI>  (15) 
5.52

>  <ChemblID>  (15) 
CHEMBL1835336

>  <standardized_canonical_smiles>  (15) 
NC(Cc1cc(Cl)c([N+](=O)[O-])cc1CCC(=O)O)C(=O)O

$$$$
4YMB_4E7_B_301
     RDKit          3D

 20 21  0  0  0  0  0  0  0  0999 V2000
   -2.6510   36.3440   16.9330 N   0  0  0  0  0  0  0  0  0  0  0  0
   -3.4810   35.4150   17.7390 C   0  0  0  0  0  0  0  0  0  0  0  0
   -2.7320   35.2290   19.0990 C   0  0  0  0  0  0  0  0  0  0  0  0
   -4.9210   36.0190   17.8360 C   0  0  0  0  0  0  0  0  0  0  0  0
   -5.7380   35.5030   18.6010 O   0  0  0  0  0  0  0  0  0  0  0  0
   -5.2360   36.9870   17.1210 O   0  0  0  0  0  0  0  0  0  0  0  0
   -3.1350   31.1030   20.5270 C   0  0  0  0  0  0  0  0  0  0  0  0
   -1.5420   36.8160   17.7910 C   0  0  0  0  0  0  0  0  0  0  0  0
   -1.2920   35.6330   18.7410 C   0  0  0  0  0  0  0  0  0  0  0  0
   -1.6950   30.3050   18.5820 C   0  0  0  0  0  0  0  0  0  0  0  0
   -3.7430   32.1640   21.2400 C   0  0  0  0  0  0  0  0  0  0  0  0
   -2.3850   31.3820   19.3680 C   0  0  0  0  0  0  0  0  0  0  0  0
   -2.1420   29.1320   18.5010 O   0  0  0  0  0  0  0  0  0  0  0  0
   -0.6360   30.6240   17.9960 O   0  0  0  0  0  0  0  0  0  0  0  0
   -2.8760   33.8070   19.6350 C   0  0  0  0  0  0  0  0  0  0  0  0
   -3.6210   33.4990   20.7960 C   0  0  0  0  0  0  0  0  0  0  0  0
   -2.2590   32.7430   18.9370 C   0  0  0  0  0  0  0  0  0  0  0  0
   -0.3500   35.9200   19.9240 C   0  0  0  0  0  0  0  0  0  0  0  0
    1.0800   36.2560   19.4860 C   0  0  0  0  0  0  0  0  0  0  0  0
    2.1070   35.9070   20.5670 C   0  0  0  0  0  0  0  0  0  0  0  0
  2  1  1  0
  8  1  1  0
  3  2  1  0
  4  2  1  0
  9  3  1  0
 15  3  1  0
  5  4  1  0
  6  4  2  0
 11  7  2  0
 12  7  1  0
  9  8  1  0
 18  9  1  0
 12 10  1  0
 13 10  1  0
 14 10  2  0
 16 11  1  0
 17 12  2  0
 16 15  2  0
 17 15  1  0
 19 18  1  0
 20 19  1  0
A    1
N
A    2
CA
A    3
CB
A    4
C
A    5
O
A    6
OXT
A    7
CAM
A    8
CAQ
A    9
CAR
A   10
CAV
A   11
CAY
A   12
CAZ
A   13
OAA
A   14
OAC
A   15
CG
A   16
CD1
A   17
CD2
A   18
C1
A   19
C2
A   20
C3
M  END
>  <Id>  (16) 
4YMB_4E7_B_301

>  <ChainId>  (16) 
B

>  <AsymId>  (16) 
I

>  <SeqNum>  (16) 
301

>  <Name>  (16) 
(3R,4S)-3-(3-carboxyphenyl)-4-propyl-L-proline

>  <SystematicName>  (16) 
(2S,3R,4S)-3-(3-carboxyphenyl)-4-propyl-pyrrolidine-2-carboxylic acid

>  <Synonyms>  (16) 


>  <Type>  (16) 
NON-POLYMER

>  <Formula>  (16) 
C15 H19 N O4

>  <ObservedFormula>  (16) 
C15 N O4

>  <MolecularWeight>  (16) 
277.316

>  <ModifiedDate>  (16) 
2015-07-31

>  <Parent>  (16) 


>  <OneLetterCode>  (16) 


>  <SubcomponentList>  (16) 


>  <AmbiguousFlag>  (16) 
N

>  <InsertionCode>  (16) 


>  <InstanceId>  (16) 
4YMB_4E7_B_301

>  <ChemCompId>  (16) 
4E7

>  <PdbId>  (16) 
4YMB

>  <ResidueNumber>  (16) 
301

>  <InChI>  (16) 
InChI=1S/C15H19NO4/c1-2-4-11-8-16-13(15(19)20)12(11)9-5-3-6-10(7-9)14(17)18/h3,5-7,11-13,16H,2,4,8H2,1H3,(H,17,18)(H,19,20)/t11-,12+,13+/m1/s1

>  <InChIKey>  (16) 
OORLOXOWCACWSS-AGIUHOORSA-N

>  <SMILES>  (16) 
CCC[C@@H]1CN[C@@H]([C@H]1c2cccc(c2)C(=O)O)C(=O)O

>  <MissingHeavyAtoms>  (16) 
0

>  <Model>  (16) 
1

>  <AltIds>  (16) 


>  <pKI>  (16) 
6.21

>  <ChemblID>  (16) 
-

>  <standardized_canonical_smiles>  (16) 
CCC[C@@H]1CN[C@H](C(=O)O)[C@H]1c1cccc(C(=O)O)c1

$$$$
5NEB_8VE_A_307
     RDKit          3D

 15 16  0  0  0  0  0  0  0  0999 V2000
   -6.0300  -24.4260  -32.2160 N   0  0  0  0  0  0  0  0  0  0  0  0
   -5.0820  -25.1450  -29.1260 N   0  0  0  0  0  0  0  0  0  0  0  0
   -6.6560  -26.1430  -30.6720 C   0  0  0  0  0  0  0  0  0  0  0  0
   -6.2580  -26.1420  -29.1650 C   0  0  0  0  0  0  0  0  0  0  0  0
   -5.4120  -23.0500  -31.9210 C   0  0  0  0  0  0  0  0  0  0  0  0
   -9.2230  -25.4990  -30.6770 C   0  0  0  0  0  0  0  0  0  0  0  0
   -5.8220  -27.4720  -28.4730 C   0  0  0  0  0  0  0  0  0  0  0  0
   -7.8100  -25.2490  -31.1700 C   0  0  0  0  0  0  0  0  0  0  0  0
   -7.4660  -24.3190  -31.9920 N   0  0  0  0  0  0  0  0  0  0  0  0
   -4.3240  -25.3660  -30.4380 C   0  0  0  0  0  0  0  0  0  0  0  0
   -5.4590  -25.6310  -31.4550 C   0  0  0  0  0  0  0  0  0  0  0  0
   -9.4450  -26.5620  -30.0500 O   0  0  0  0  0  0  0  0  0  0  0  0
   -6.6020  -28.4470  -28.5290 O   0  0  0  0  0  0  0  0  0  0  0  0
  -10.0930  -24.6310  -30.9300 O   0  0  0  0  0  0  0  0  0  0  0  0
   -4.7170  -27.5430  -27.8800 O   0  0  0  0  0  0  0  0  0  0  0  0
  5  1  1  0
  9  1  1  0
 11  1  1  0
  4  2  1  0
 10  2  1  0
  4  3  1  0
  8  3  1  0
 11  3  1  0
  7  4  1  0
  8  6  1  0
 12  6  1  0
 14  6  2  0
 13  7  2  0
 15  7  1  0
  9  8  2  0
 11 10  1  0
A    1
N1
A    2
N3
A    3
C4
A    4
C5
A    5
C6
A    6
C7
A    7
C8
A    8
C1
A    9
N2
A   10
C2
A   11
C3
A   12
O1
A   13
O2
A   14
O3
A   15
O4
M  END
>  <Id>  (17) 
5NEB_8VE_A_307

>  <ChainId>  (17) 
A

>  <AsymId>  (17) 
S

>  <SeqNum>  (17) 
307

>  <Name>  (17) 
(3~{a}~{R},4~{S},6~{a}~{R})-1-methyl-4,5,6,6~{a}-tetrahydro-3~{a}~{H}-pyrrolo[3,4-c]pyrazole-3,4-dicarboxylic acid

>  <SystematicName>  (17) 
(3~{a}~{R},4~{S},6~{a}~{R})-1-methyl-4,5,6,6~{a}-tetrahydro-3~{a}~{H}-pyrrolo[3,4-c]pyrazole-3,4-dicarboxylic acid

>  <Synonyms>  (17) 


>  <Type>  (17) 
NON-POLYMER

>  <Formula>  (17) 
C8 H11 N3 O4

>  <ObservedFormula>  (17) 
C8 N3 O4

>  <MolecularWeight>  (17) 
213.191

>  <ModifiedDate>  (17) 
2017-07-21

>  <Parent>  (17) 


>  <OneLetterCode>  (17) 


>  <SubcomponentList>  (17) 


>  <AmbiguousFlag>  (17) 
N

>  <InsertionCode>  (17) 


>  <InstanceId>  (17) 
5NEB_8VE_A_307

>  <ChemCompId>  (17) 
8VE

>  <PdbId>  (17) 
5NEB

>  <ResidueNumber>  (17) 
307

>  <InChI>  (17) 
InChI=1S/C8H11N3O4/c1-11-3-2-9-5(7(12)13)4(3)6(10-11)8(14)15/h3-5,9H,2H2,1H3,(H,12,13)(H,14,15)/t3-,4-,5-/m0/s1

>  <InChIKey>  (17) 
MUCHMWUQFYVYSF-YUPRTTJUSA-N

>  <SMILES>  (17) 
CN1[C@H]2CN[C@@H]([C@H]2C(=N1)C(=O)O)C(=O)O

>  <MissingHeavyAtoms>  (17) 
0

>  <Model>  (17) 
1

>  <AltIds>  (17) 


>  <pKI>  (17) 
7.07

>  <ChemblID>  (17) 
-

>  <standardized_canonical_smiles>  (17) 
CN1N=C(C(=O)O)[C@@H]2[C@@H](C(=O)O)NC[C@@H]21

$$$$
3GBA_DYH_D_258
     RDKit          3D

 21 22  0  0  0  0  0  0  0  0999 V2000
  -17.1260   25.2490  115.4440 C   0  0  0  0  0  0  0  0  0  0  0  0
  -16.2410   26.4190  115.5020 N   0  0  0  0  0  0  0  0  0  0  0  0
  -15.2580   26.3400  116.6010 C   0  0  0  0  0  0  0  0  0  0  0  0
  -14.4710   27.6490  116.6490 C   0  0  0  0  0  0  0  0  0  0  0  0
  -13.9770   28.0010  115.3500 O   0  0  0  0  0  0  0  0  0  0  0  0
  -13.3310   27.5280  117.6420 C   0  0  0  0  0  0  0  0  0  0  0  0
  -12.4400   26.5380  117.1740 O   0  0  0  0  0  0  0  0  0  0  0  0
  -13.0360   25.2410  117.2560 C   0  0  0  0  0  0  0  0  0  0  0  0
  -12.1610   24.3060  116.4600 C   0  0  0  0  0  0  0  0  0  0  0  0
  -14.3340   25.1320  116.4590 C   0  0  0  0  0  0  0  0  0  0  0  0
  -13.9310   25.1050  115.0800 O   0  0  0  0  0  0  0  0  0  0  0  0
  -12.6210   24.5110  115.0150 C   0  0  0  0  0  0  0  0  0  0  0  0
  -11.6490   25.4520  114.2890 C   0  0  0  0  0  0  0  0  0  0  0  0
  -12.0160   26.6310  114.0820 O   0  0  0  0  0  0  0  0  0  0  0  0
  -10.5680   24.9620  113.9150 O   0  0  0  0  0  0  0  0  0  0  0  0
  -12.7210   23.1470  114.3300 C   0  0  0  0  0  0  0  0  0  0  0  0
  -13.0610   23.1540  112.8230 C   0  0  0  0  0  0  0  0  0  0  0  0
  -12.6640   21.8170  112.2250 C   0  0  0  0  0  0  0  0  0  0  0  0
  -11.4900   21.4580  112.4410 O   0  0  0  0  0  0  0  0  0  0  0  0
  -13.5250   21.1830  111.5700 O   0  0  0  0  0  0  0  0  0  0  0  0
  -14.4850   23.4060  112.5360 N   0  0  0  0  0  0  0  0  0  0  0  0
  2  1  1  0
  3  2  1  0
  4  3  1  0
 10  3  1  0
  5  4  1  0
  6  4  1  0
  7  6  1  0
  8  7  1  0
  9  8  1  0
 10  8  1  0
 12  9  1  0
 11 10  1  0
 12 11  1  0
 13 12  1  0
 16 12  1  0
 14 13  1  0
 15 13  2  0
 17 16  1  0
 18 17  1  0
 21 17  1  0
 19 18  2  0
 20 18  1  0
A    1
CAA
A    2
NH
A    3
CAH
A    4
CAG
A    5
OAC
A    6
CAP
A    7
OAQ
A    8
CAR
A    9
CAS
A   10
CAI
A   11
OAJ
A   12
CAK
A   13
CAE
A   14
OAB
A   15
OAF
A   16
CB
A   17
CA
A   18
C
A   19
OXT
A   20
O
A   21
N
M  END
>  <Id>  (18) 
3GBA_DYH_D_258

>  <ChainId>  (18) 
D

>  <AsymId>  (18) 
O

>  <SeqNum>  (18) 
258

>  <Name>  (18) 
(2R,3aR,6S,7R,7aR)-2-[(2S)-2-amino-2-carboxyethyl]-6-hydroxy-7-(methylamino)hexahydro-2H-furo[3,2-b]pyran-2-carboxylic acid

>  <SystematicName>  (18) 
(2R,3aR,6S,7R,7aR)-2-[(2S)-2-amino-3-hydroxy-3-oxo-propyl]-6-hydroxy-7-methylamino-3,3a,5,6,7,7a-hexahydrofuro[4,5-b]pyran-2-carboxylic acid

>  <Synonyms>  (18) 


>  <Type>  (18) 
NON-POLYMER

>  <Formula>  (18) 
C12 H20 N2 O7

>  <ObservedFormula>  (18) 
C12 N2 O7

>  <MolecularWeight>  (18) 
304.296

>  <ModifiedDate>  (18) 
2011-06-04

>  <Parent>  (18) 


>  <OneLetterCode>  (18) 


>  <SubcomponentList>  (18) 


>  <AmbiguousFlag>  (18) 
N

>  <InsertionCode>  (18) 


>  <InstanceId>  (18) 
3GBA_DYH_D_258

>  <ChemCompId>  (18) 
DYH

>  <PdbId>  (18) 
3GBA

>  <ResidueNumber>  (18) 
258

>  <InChI>  (18) 
InChI=1S/C12H20N2O7/c1-14-8-6(15)4-20-7-3-12(11(18)19,21-9(7)8)2-5(13)10(16)17/h5-9,14-15H,2-4,13H2,1H3,(H,16,17)(H,18,19)/t5-,6+,7+,8+,9-,12+/m0/s1

>  <InChIKey>  (18) 
YUSZFKPLFIQTGF-FDNSHYBFSA-N

>  <SMILES>  (18) 
CN[C@@H]1[C@@H](CO[C@H]2[C@@H]1O[C@@](C2)(C[C@@H](C(=O)O)N)C(=O)O)O

>  <MissingHeavyAtoms>  (18) 
0

>  <Model>  (18) 
1

>  <AltIds>  (18) 


>  <pKI>  (18) 
9.09

>  <ChemblID>  (18) 
-

>  <standardized_canonical_smiles>  (18) 
CN[C@@H]1[C@H](O)CO[C@@H]2C[C@](C[C@H](N)C(=O)O)(C(=O)O)O[C@@H]21

$$$$
3GBB_MS8_B_258
     RDKit          3D

 18 19  0  0  0  0  0  0  0  0999 V2000
  -23.2750   33.1830   35.0540 O   0  0  0  0  0  0  0  0  0  0  0  0
  -23.4870   34.3430   34.6390 C   0  0  0  0  0  0  0  0  0  0  0  0
  -23.9870   35.2770   35.3040 O   0  0  0  0  0  0  0  0  0  0  0  0
  -23.1040   34.6300   33.1860 C   0  0  0  0  0  0  0  0  0  0  0  0
  -23.3760   36.0330   32.8430 N   0  0  0  0  0  0  0  0  0  0  0  0
  -21.6190   34.3210   32.9850 C   0  0  0  0  0  0  0  0  0  0  0  0
  -21.2730   34.2620   31.4950 C   0  0  0  0  0  0  0  0  0  0  0  0
  -19.7810   33.9450   31.3480 C   0  0  0  0  0  0  0  0  0  0  0  0
  -22.1350   33.2090   30.7960 C   0  0  0  0  0  0  0  0  0  0  0  0
  -22.6020   33.5100   29.6770 O   0  0  0  0  0  0  0  0  0  0  0  0
  -22.3230   32.1330   31.4040 O   0  0  0  0  0  0  0  0  0  0  0  0
  -21.4460   35.5470   30.8860 O   0  0  0  0  0  0  0  0  0  0  0  0
  -20.2600   36.2420   31.2950 C   0  0  0  0  0  0  0  0  0  0  0  0
  -19.1880   35.2620   30.8430 C   0  0  0  0  0  0  0  0  0  0  0  0
  -20.1380   37.5860   30.5730 C   0  0  0  0  0  0  0  0  0  0  0  0
  -19.9510   37.3870   29.0690 C   0  0  0  0  0  0  0  0  0  0  0  0
  -18.7720   36.4460   28.8220 C   0  0  0  0  0  0  0  0  0  0  0  0
  -19.0850   35.1760   29.4130 O   0  0  0  0  0  0  0  0  0  0  0  0
  2  1  2  0
  3  2  1  0
  4  2  1  0
  5  4  1  0
  6  4  1  0
  7  6  1  0
  8  7  1  0
  9  7  1  0
 12  7  1  0
 14  8  1  0
 10  9  1  0
 11  9  2  0
 13 12  1  0
 14 13  1  0
 15 13  1  0
 18 14  1  0
 16 15  1  0
 17 16  1  0
 18 17  1  0
A    1
O
A    2
C
A    3
OXT
A    4
CA
A    5
N
A    6
CB
A    7
CAS
A    8
CAJ
A    9
CAN
A   10
OAC
A   11
OAE
A   12
OAL
A   13
CAR
A   14
CAQ
A   15
CAH
A   16
CAP
A   17
CAG
A   18
OAK
M  END
>  <Id>  (19) 
3GBB_MS8_B_258

>  <ChainId>  (19) 
B

>  <AsymId>  (19) 
D

>  <SeqNum>  (19) 
258

>  <Name>  (19) 
(2R,3aR,7aR)-2-[(2S)-2-amino-3-hydroxy-3-oxo-propyl]-3,3a,5,6,7,7a-hexahydrofuro[4,5-b]pyran-2-carboxylic acid

>  <SystematicName>  (19) 
(2R,3aR,7aR)-2-[(2S)-2-amino-3-hydroxy-3-oxo-propyl]-3,3a,5,6,7,7a-hexahydrofuro[4,5-b]pyran-2-carboxylic acid

>  <Synonyms>  (19) 


>  <Type>  (19) 
NON-POLYMER

>  <Formula>  (19) 
C11 H17 N O6

>  <ObservedFormula>  (19) 
C11 N O6

>  <MolecularWeight>  (19) 
259.256

>  <ModifiedDate>  (19) 
2011-06-04

>  <Parent>  (19) 


>  <OneLetterCode>  (19) 


>  <SubcomponentList>  (19) 


>  <AmbiguousFlag>  (19) 
N

>  <InsertionCode>  (19) 


>  <InstanceId>  (19) 
3GBB_MS8_B_258

>  <ChemCompId>  (19) 
MS8

>  <PdbId>  (19) 
3GBB

>  <ResidueNumber>  (19) 
258

>  <InChI>  (19) 
InChI=1S/C11H17NO6/c12-6(9(13)14)4-11(10(15)16)5-8-7(18-11)2-1-3-17-8/h6-8H,1-5,12H2,(H,13,14)(H,15,16)/t6-,7+,8+,11+/m0/s1

>  <InChIKey>  (19) 
RZIYCCQNKHONBB-PRKAOEEVSA-N

>  <SMILES>  (19) 
C1C[C@@H]2[C@@H](C[C@](O2)(C[C@@H](C(=O)O)N)C(=O)O)OC1

>  <MissingHeavyAtoms>  (19) 
0

>  <Model>  (19) 
1

>  <AltIds>  (19) 


>  <pKI>  (19) 
6.9

>  <ChemblID>  (19) 
-

>  <standardized_canonical_smiles>  (19) 
N[C@@H](C[C@]1(C(=O)O)C[C@H]2OCCC[C@H]2O1)C(=O)O

$$$$
4QF9_35K_C_301
     RDKit          3D

 19 20  0  0  0  0  0  0  0  0999 V2000
   30.6450  -31.7640  -21.7430 C   0  0  0  0  0  0  0  0  0  0  0  0
   31.3390  -30.3320  -25.6500 N   0  0  0  0  0  0  0  0  0  0  0  0
   30.9360  -30.4560  -27.8690 O   0  0  0  0  0  0  0  0  0  0  0  0
   31.5300  -30.6890  -21.9480 C   0  0  0  0  0  0  0  0  0  0  0  0
   29.5850  -32.4660  -25.2270 N   0  0  0  0  0  0  0  0  0  0  0  0
   29.2090  -32.5610  -27.4560 O   0  0  0  0  0  0  0  0  0  0  0  0
   31.7760  -30.1930  -23.2520 C   0  0  0  0  0  0  0  0  0  0  0  0
   32.7880  -30.4990  -18.1620 N   0  0  0  0  0  0  0  0  0  0  0  0
   34.4170  -28.5980  -17.9330 O   0  0  0  0  0  0  0  0  0  0  0  0
   29.9860  -32.3710  -22.8280 C   0  0  0  0  0  0  0  0  0  0  0  0
   35.3940  -28.9380  -19.9090 O   0  0  0  0  0  0  0  0  0  0  0  0
   30.2300  -31.8800  -24.1210 C   0  0  0  0  0  0  0  0  0  0  0  0
   31.1160  -30.8010  -24.3370 C   0  0  0  0  0  0  0  0  0  0  0  0
   30.6870  -30.9270  -26.7510 C   0  0  0  0  0  0  0  0  0  0  0  0
   29.8030  -32.0020  -26.5430 C   0  0  0  0  0  0  0  0  0  0  0  0
   32.1760  -30.1020  -20.8450 C   0  0  0  0  0  0  0  0  0  0  0  0
   33.5080  -30.7890  -20.5360 C   0  0  0  0  0  0  0  0  0  0  0  0
   33.9300  -30.5920  -19.0780 C   0  0  0  0  0  0  0  0  0  0  0  0
   34.6460  -29.2550  -18.9660 C   0  0  0  0  0  0  0  0  0  0  0  0
  4  1  2  0
 10  1  1  0
 13  2  1  0
 14  2  1  0
 14  3  2  0
  7  4  1  0
 16  4  1  0
 12  5  1  0
 15  5  1  0
 15  6  2  0
 13  7  2  0
 18  8  1  0
 19  9  1  0
 12 10  2  0
 19 11  2  0
 13 12  1  0
 15 14  1  0
 17 16  1  0
 18 17  1  0
 19 18  1  0
A    1
C1
A    2
N1
A    3
O1
A    4
C2
A    5
N2
A    6
O2
A    7
C3
A    8
N3
A    9
O3
A   10
C4
A   11
O4
A   12
C5
A   13
C6
A   14
C7
A   15
C8
A   16
C9
A   17
C10
A   18
C11
A   19
C12
M  END
>  <Id>  (20) 
4QF9_35K_C_301

>  <ChainId>  (20) 
C

>  <AsymId>  (20) 
O

>  <SeqNum>  (20) 
301

>  <Name>  (20) 
(2S)-2-amino-4-(2,3-dioxo-1,2,3,4-tetrahydroquinoxalin-6-yl)butanoic acid

>  <SystematicName>  (20) 
(2S)-2-azanyl-4-[2,3-bis(oxidanylidene)-1,4-dihydroquinoxalin-6-yl]butanoic acid

>  <Synonyms>  (20) 


>  <Type>  (20) 
NON-POLYMER

>  <Formula>  (20) 
C12 H13 N3 O4

>  <ObservedFormula>  (20) 
C12 N3 O4

>  <MolecularWeight>  (20) 
263.249

>  <ModifiedDate>  (20) 
2015-04-17

>  <Parent>  (20) 


>  <OneLetterCode>  (20) 


>  <SubcomponentList>  (20) 


>  <AmbiguousFlag>  (20) 
N

>  <InsertionCode>  (20) 


>  <InstanceId>  (20) 
4QF9_35K_C_301

>  <ChemCompId>  (20) 
35K

>  <PdbId>  (20) 
4QF9

>  <ResidueNumber>  (20) 
301

>  <InChI>  (20) 
InChI=1S/C12H13N3O4/c13-7(12(18)19)3-1-6-2-4-8-9(5-6)15-11(17)10(16)14-8/h2,4-5,7H,1,3,13H2,(H,14,16)(H,15,17)(H,18,19)/t7-/m0/s1

>  <InChIKey>  (20) 
HOBORVHHDCBXLX-ZETCQYMHSA-N

>  <SMILES>  (20) 
c1cc2c(cc1CC[C@@H](C(=O)O)N)NC(=O)C(=O)N2

>  <MissingHeavyAtoms>  (20) 
0

>  <Model>  (20) 
1

>  <AltIds>  (20) 


>  <pKI>  (20) 
4.79

>  <ChemblID>  (20) 
-

>  <standardized_canonical_smiles>  (20) 
N[C@@H](CCc1ccc2[nH]c(=O)c(=O)[nH]c2c1)C(=O)O

$$$$
2QS4_LY5_D_260
     RDKit          3D

 24 26  0  0  0  0  0  0  0  0999 V2000
  -16.4340   26.7100  -35.9810 F   0  0  0  0  0  0  0  0  0  0  0  0
  -17.7410   26.8110  -35.7550 C   0  0  0  0  0  0  0  0  0  0  0  0
  -17.8780   26.5880  -34.4800 F   0  0  0  0  0  0  0  0  0  0  0  0
  -18.6270   25.9010  -36.5850 C   0  0  0  0  0  0  0  0  0  0  0  0
  -18.7300   26.7190  -37.8660 C   0  0  0  0  0  0  0  0  0  0  0  0
  -19.7480   26.1390  -38.7950 C   0  0  0  0  0  0  0  0  0  0  0  0
  -20.9380   25.9760  -38.4930 O   0  0  0  0  0  0  0  0  0  0  0  0
  -19.3550   25.7920  -39.8910 O   0  0  0  0  0  0  0  0  0  0  0  0
  -18.2550   28.2190  -36.1200 C   0  0  0  0  0  0  0  0  0  0  0  0
  -19.0700   28.0560  -37.3690 N   0  0  0  0  0  0  0  0  0  0  0  0
  -18.6780   29.0530  -38.3580 C   0  0  0  0  0  0  0  0  0  0  0  0
  -18.9720   30.4890  -37.9110 C   0  0  0  0  0  0  0  0  0  0  0  0
  -20.4580   30.8470  -38.1130 C   0  0  0  0  0  0  0  0  0  0  0  0
  -18.1100   31.4110  -38.7960 C   0  0  0  0  0  0  0  0  0  0  0  0
  -18.3090   32.8810  -38.4530 C   0  0  0  0  0  0  0  0  0  0  0  0
  -19.8010   33.3040  -38.5560 C   0  0  0  0  0  0  0  0  0  0  0  0
  -20.6710   32.3300  -37.7470 C   0  0  0  0  0  0  0  0  0  0  0  0
  -20.3200   33.3620  -40.0080 C   0  0  0  0  0  0  0  0  0  0  0  0
  -21.7350   33.8710  -40.0170 N   0  0  0  0  0  0  0  0  0  0  0  0
  -22.6800   32.9940  -39.2490 C   0  0  0  0  0  0  0  0  0  0  0  0
  -22.1550   32.7760  -37.8030 C   0  0  0  0  0  0  0  0  0  0  0  0
  -23.9980   33.7290  -39.2790 C   0  0  0  0  0  0  0  0  0  0  0  0
  -24.9780   33.1020  -38.7480 O   0  0  0  0  0  0  0  0  0  0  0  0
  -24.0820   34.8820  -39.7190 O   0  0  0  0  0  0  0  0  0  0  0  0
  2  1  1  0
  3  2  1  0
  4  2  1  0
  9  2  1  0
  5  4  1  0
  6  5  1  0
 10  5  1  0
  7  6  2  0
  8  6  1  0
 10  9  1  0
 11 10  1  0
 12 11  1  0
 13 12  1  0
 14 12  1  0
 17 13  1  0
 15 14  1  0
 16 15  1  0
 17 16  1  0
 18 16  1  0
 21 17  1  0
 19 18  1  0
 20 19  1  0
 21 20  1  0
 22 20  1  0
 23 22  2  0
 24 22  1  0
A    1
F2
A    2
C15
A    3
F1
A    4
C14
A    5
C12
A    6
C13
A    7
O4
A    8
O3
A    9
C16
A   10
N2
A   11
C11
A   12
C7
A   13
C6
A   14
C8
A   15
C9
A   16
C4
A   17
C5
A   18
C3
A   19
N1
A   20
C1
A   21
C2
A   22
C10
A   23
O1
A   24
O2
M  END
>  <Id>  (21) 
2QS4_LY5_D_260

>  <ChainId>  (21) 
D

>  <AsymId>  (21) 
L

>  <SeqNum>  (21) 
260

>  <Name>  (21) 
(3S,4aR,6S,8aR)-6-{[(2S)-2-carboxy-4,4-difluoropyrrolidin-1-yl]methyl}decahydroisoquinoline-3-carboxylic acid

>  <SystematicName>  (21) 
(3S,4aR,6S,8aR)-6-[[(2S)-2-carboxy-4,4-bis(fluoranyl)pyrrolidin-1-yl]methyl]-1,2,3,4,4a,5,6,7,8,8a-decahydroisoquinoline-3-carboxylic acid

>  <Synonyms>  (21) 
LY466195

>  <Type>  (21) 
NON-POLYMER

>  <Formula>  (21) 
C16 H24 F2 N2 O4

>  <ObservedFormula>  (21) 
C16 F2 N2 O4

>  <MolecularWeight>  (21) 
346.37

>  <ModifiedDate>  (21) 
2015-07-29

>  <Parent>  (21) 


>  <OneLetterCode>  (21) 


>  <SubcomponentList>  (21) 


>  <AmbiguousFlag>  (21) 
N

>  <InsertionCode>  (21) 


>  <InstanceId>  (21) 
2QS4_LY5_D_260

>  <ChemCompId>  (21) 
LY5

>  <PdbId>  (21) 
2QS4

>  <ResidueNumber>  (21) 
260

>  <InChI>  (21) 
InChI=1S/C16H24F2N2O4/c17-16(18)5-13(15(23)24)20(8-16)7-9-1-2-10-6-19-12(14(21)22)4-11(10)3-9/h9-13,19H,1-8H2,(H,21,22)(H,23,24)/t9-,10-,11+,12-,13-/m0/s1

>  <InChIKey>  (21) 
OXQXJYQSWZFDBB-WJTVCTBASA-N

>  <SMILES>  (21) 
C1C[C@H]2CN[C@@H](C[C@H]2C[C@H]1CN3CC(C[C@H]3C(=O)O)(F)F)C(=O)O

>  <MissingHeavyAtoms>  (21) 
0

>  <Model>  (21) 
1

>  <AltIds>  (21) 


>  <pKI>  (21) 
7.3

>  <ChemblID>  (21) 
-

>  <standardized_canonical_smiles>  (21) 
O=C(O)[C@@H]1C[C@H]2C[C@@H](CN3CC(F)(F)C[C@H]3C(=O)O)CC[C@H]2CN1

$$$$
2F36_GLU_A_504
     RDKit          3D

 10  9  0  0  0  0  0  0  0  0999 V2000
   -7.3210   28.9390   42.8220 N   0  0  0  0  0  0  0  0  0  0  0  0
   -7.8460   30.0790   42.0160 C   0  0  0  0  0  0  0  0  0  0  0  0
   -7.4820   31.4300   42.6230 C   0  0  0  0  0  0  0  0  0  0  0  0
   -7.8220   32.4830   42.0580 O   0  0  0  0  0  0  0  0  0  0  0  0
   -9.3690   29.9870   41.8340 C   0  0  0  0  0  0  0  0  0  0  0  0
   -9.8590   29.0080   40.7970 C   0  0  0  0  0  0  0  0  0  0  0  0
   -9.5760   29.5080   39.4020 C   0  0  0  0  0  0  0  0  0  0  0  0
   -9.5440   28.7020   38.4570 O   0  0  0  0  0  0  0  0  0  0  0  0
   -9.3680   30.7220   39.2550 O   0  0  0  0  0  0  0  0  0  0  0  0
   -6.8210   31.5050   43.6370 O   0  0  0  0  0  0  0  0  0  0  0  0
  2  1  1  0
  3  2  1  0
  5  2  1  0
  4  3  2  0
 10  3  1  0
  6  5  1  0
  7  6  1  0
  8  7  2  0
  9  7  1  0
A    1
N
A    2
CA
A    3
C
A    4
O
A    5
CB
A    6
CG
A    7
CD
A    8
OE1
A    9
OE2
A   10
OXT
M  END
>  <Id>  (22) 
2F36_GLU_A_504

>  <ChainId>  (22) 
A

>  <AsymId>  (22) 
I

>  <SeqNum>  (22) 
504

>  <Name>  (22) 
GLUTAMIC ACID

>  <SystematicName>  (22) 
(2S)-2-azanylpentanedioic acid

>  <Synonyms>  (22) 


>  <Type>  (22) 
L-PEPTIDE LINKING

>  <Formula>  (22) 
C5 H9 N O4

>  <ObservedFormula>  (22) 
C5 N O4

>  <MolecularWeight>  (22) 
147.129

>  <ModifiedDate>  (22) 
2011-06-04

>  <Parent>  (22) 


>  <OneLetterCode>  (22) 
E

>  <SubcomponentList>  (22) 


>  <AmbiguousFlag>  (22) 
N

>  <InsertionCode>  (22) 


>  <InstanceId>  (22) 
2F36_GLU_A_504

>  <ChemCompId>  (22) 
GLU

>  <PdbId>  (22) 
2F36

>  <ResidueNumber>  (22) 
504

>  <InChI>  (22) 
InChI=1S/C5H9NO4/c6-3(5(9)10)1-2-4(7)8/h3H,1-2,6H2,(H,7,8)(H,9,10)/t3-/m0/s1

>  <InChIKey>  (22) 
WHUUTDBJXJRKMK-VKHMYHEASA-N

>  <SMILES>  (22) 
C(CC(=O)O)[C@@H](C(=O)O)N

>  <MissingHeavyAtoms>  (22) 
0

>  <Model>  (22) 
1

>  <AltIds>  (22) 


>  <pKI>  (22) 
7.24

>  <ChemblID>  (22) 
-

>  <standardized_canonical_smiles>  (22) 
N[C@@H](CCC(=O)O)C(=O)O

$$$$
1YCJ_GLU_A_999
     RDKit          3D

 10  9  0  0  0  0  0  0  0  0999 V2000
   21.3440    6.8640   72.3110 N   0  0  0  0  0  0  0  0  0  0  0  0
   22.4250    5.8360   72.4880 C   0  0  0  0  0  0  0  0  0  0  0  0
   21.9460    4.5290   71.8820 C   0  0  0  0  0  0  0  0  0  0  0  0
   22.6250    3.4980   72.0580 O   0  0  0  0  0  0  0  0  0  0  0  0
   22.7140    5.6910   73.9870 C   0  0  0  0  0  0  0  0  0  0  0  0
   23.5780    6.8240   74.5480 C   0  0  0  0  0  0  0  0  0  0  0  0
   25.0470    6.6700   74.1250 C   0  0  0  0  0  0  0  0  0  0  0  0
   25.4030    5.6170   73.5090 O   0  0  0  0  0  0  0  0  0  0  0  0
   25.8630    7.6090   74.3870 O   0  0  0  0  0  0  0  0  0  0  0  0
   20.9230    4.5260   71.1610 O   0  0  0  0  0  0  0  0  0  0  0  0
  2  1  1  0
  3  2  1  0
  5  2  1  0
  4  3  2  0
 10  3  1  0
  6  5  1  0
  7  6  1  0
  8  7  2  0
  9  7  1  0
A    1
N
A    2
CA
A    3
C
A    4
O
A    5
CB
A    6
CG
A    7
CD
A    8
OE1
A    9
OE2
A   10
OXT
M  END
>  <Id>  (23) 
1YCJ_GLU_A_999

>  <ChainId>  (23) 
A

>  <AsymId>  (23) 
H

>  <SeqNum>  (23) 
999

>  <Name>  (23) 
GLUTAMIC ACID

>  <SystematicName>  (23) 
(2S)-2-azanylpentanedioic acid

>  <Synonyms>  (23) 


>  <Type>  (23) 
L-PEPTIDE LINKING

>  <Formula>  (23) 
C5 H9 N O4

>  <ObservedFormula>  (23) 
C5 N O4

>  <MolecularWeight>  (23) 
147.129

>  <ModifiedDate>  (23) 
2011-06-04

>  <Parent>  (23) 


>  <OneLetterCode>  (23) 
E

>  <SubcomponentList>  (23) 


>  <AmbiguousFlag>  (23) 
N

>  <InsertionCode>  (23) 


>  <InstanceId>  (23) 
1YCJ_GLU_A_999

>  <ChemCompId>  (23) 
GLU

>  <PdbId>  (23) 
1YCJ

>  <ResidueNumber>  (23) 
999

>  <InChI>  (23) 
InChI=1S/C5H9NO4/c6-3(5(9)10)1-2-4(7)8/h3H,1-2,6H2,(H,7,8)(H,9,10)/t3-/m0/s1

>  <InChIKey>  (23) 
WHUUTDBJXJRKMK-VKHMYHEASA-N

>  <SMILES>  (23) 
C(CC(=O)O)[C@@H](C(=O)O)N

>  <MissingHeavyAtoms>  (23) 
0

>  <Model>  (23) 
1

>  <AltIds>  (23) 


>  <pKI>  (23) 
7.24

>  <ChemblID>  (23) 
-

>  <standardized_canonical_smiles>  (23) 
N[C@@H](CCC(=O)O)C(=O)O

$$$$
1TXF_GLU_A_259
     RDKit          3D

 10  9  0  0  0  0  0  0  0  0999 V2000
   20.5150   -0.8510   10.8190 N   0  0  0  0  0  0  0  0  0  0  0  0
   21.6640   -1.7870   10.7210 C   0  0  0  0  0  0  0  0  0  0  0  0
   21.2110   -3.1880   10.3350 C   0  0  0  0  0  0  0  0  0  0  0  0
   22.0480   -4.1110   10.4270 O   0  0  0  0  0  0  0  0  0  0  0  0
   22.4030   -1.8480   12.0530 C   0  0  0  0  0  0  0  0  0  0  0  0
   23.1850   -0.5990   12.3960 C   0  0  0  0  0  0  0  0  0  0  0  0
   24.3750   -0.3790   11.4830 C   0  0  0  0  0  0  0  0  0  0  0  0
   24.9450   -1.3820   10.9990 O   0  0  0  0  0  0  0  0  0  0  0  0
   24.7550    0.7950   11.2570 O   0  0  0  0  0  0  0  0  0  0  0  0
   20.0350   -3.3520    9.9480 O   0  0  0  0  0  0  0  0  0  0  0  0
  2  1  1  0
  3  2  1  0
  5  2  1  0
  4  3  2  0
 10  3  1  0
  6  5  1  0
  7  6  1  0
  8  7  2  0
  9  7  1  0
A    1
N
A    2
CA
A    3
C
A    4
O
A    5
CB
A    6
CG
A    7
CD
A    8
OE1
A    9
OE2
A   10
OXT
M  END
>  <Id>  (24) 
1TXF_GLU_A_259

>  <ChainId>  (24) 
A

>  <AsymId>  (24) 
B

>  <SeqNum>  (24) 
259

>  <Name>  (24) 
GLUTAMIC ACID

>  <SystematicName>  (24) 
(2S)-2-azanylpentanedioic acid

>  <Synonyms>  (24) 


>  <Type>  (24) 
L-PEPTIDE LINKING

>  <Formula>  (24) 
C5 H9 N O4

>  <ObservedFormula>  (24) 
C5 N O4

>  <MolecularWeight>  (24) 
147.129

>  <ModifiedDate>  (24) 
2011-06-04

>  <Parent>  (24) 


>  <OneLetterCode>  (24) 
E

>  <SubcomponentList>  (24) 


>  <AmbiguousFlag>  (24) 
N

>  <InsertionCode>  (24) 


>  <InstanceId>  (24) 
1TXF_GLU_A_259

>  <ChemCompId>  (24) 
GLU

>  <PdbId>  (24) 
1TXF

>  <ResidueNumber>  (24) 
259

>  <InChI>  (24) 
InChI=1S/C5H9NO4/c6-3(5(9)10)1-2-4(7)8/h3H,1-2,6H2,(H,7,8)(H,9,10)/t3-/m0/s1

>  <InChIKey>  (24) 
WHUUTDBJXJRKMK-VKHMYHEASA-N

>  <SMILES>  (24) 
C(CC(=O)O)[C@@H](C(=O)O)N

>  <MissingHeavyAtoms>  (24) 
0

>  <Model>  (24) 
1

>  <AltIds>  (24) 


>  <pKI>  (24) 
7.24

>  <ChemblID>  (24) 
-

>  <standardized_canonical_smiles>  (24) 
N[C@@H](CCC(=O)O)C(=O)O

$$$$
