3P5O_EAM_A_1
     RDKit          3D

 30 33  0  0  0  0  0  0  0  0999 V2000
   30.0640   48.5180   -7.0500 Cl  0  0  0  0  0  0  0  0  0  0  0  0
   29.0760   49.1150   -5.7480 C   0  0  0  0  0  0  0  0  0  0  0  0
   29.4380   48.8300   -4.4430 C   0  0  0  0  0  0  0  0  0  0  0  0
   28.6500   49.2820   -3.4020 C   0  0  0  0  0  0  0  0  0  0  0  0
   27.9370   49.8640   -6.0320 C   0  0  0  0  0  0  0  0  0  0  0  0
   27.1490   50.3230   -4.9760 C   0  0  0  0  0  0  0  0  0  0  0  0
   27.5180   50.0660   -3.6500 C   0  0  0  0  0  0  0  0  0  0  0  0
   26.6630   50.4900   -2.5010 C   0  0  0  0  0  0  0  0  0  0  0  0
   25.4340   50.7350   -2.8010 N   0  0  0  0  0  0  0  0  0  0  0  0
   27.2720   50.4370   -1.1350 C   0  0  0  0  0  0  0  0  0  0  0  0
   26.5010   50.1460   -0.0080 C   0  0  0  0  0  0  0  0  0  0  0  0
   26.9420   50.5620    1.2500 C   0  0  0  0  0  0  0  0  0  0  0  0
   28.1760   51.1830    1.4220 C   0  0  0  0  0  0  0  0  0  0  0  0
   28.9860   51.4230    0.3120 C   0  0  0  0  0  0  0  0  0  0  0  0
   30.2210   52.0450    0.4010 O   0  0  0  0  0  0  0  0  0  0  0  0
   30.8290   52.2390    1.6800 C   0  0  0  0  0  0  0  0  0  0  0  0
   28.5320   51.0310   -0.9440 C   0  0  0  0  0  0  0  0  0  0  0  0
   25.1990   49.5540   -0.0700 N   0  0  0  0  0  0  0  0  0  0  0  0
   24.1840   50.0970   -0.8260 C   0  0  0  0  0  0  0  0  0  0  0  0
   23.0880   49.3970   -0.6560 N   0  0  0  0  0  0  0  0  0  0  0  0
   23.3830   48.3730    0.2570 N   0  0  0  0  0  0  0  0  0  0  0  0
   24.6440   48.4840    0.5990 C   0  0  0  0  0  0  0  0  0  0  0  0
   25.3360   47.5810    1.5530 C   0  0  0  0  0  0  0  0  0  0  0  0
   24.5290   51.2470   -1.7650 C   0  0  0  0  0  0  0  0  0  0  0  0
   23.2930   51.7520   -2.5170 C   0  0  0  0  0  0  0  0  0  0  0  0
   23.6190   52.9410   -3.4060 C   0  0  0  0  0  0  0  0  0  0  0  0
   24.6110   53.6270   -3.1960 O   0  0  0  0  0  0  0  0  0  0  0  0
   22.7760   53.2000   -4.4070 N   0  0  0  0  0  0  0  0  0  0  0  0
   23.0040   54.3190   -5.3120 C   0  0  0  0  0  0  0  0  0  0  0  0
   21.7710   54.6940   -6.1080 C   0  0  0  0  0  0  0  0  0  0  0  0
  2  1  1  0
  3  2  2  0
  5  2  1  0
  4  3  1  0
  7  4  2  0
  6  5  2  0
  7  6  1  0
  8  7  1  0
  9  8  2  0
 10  8  1  0
 24  9  1  0
 11 10  2  0
 17 10  1  0
 12 11  1  0
 18 11  1  0
 13 12  2  0
 14 13  1  0
 15 14  1  0
 17 14  2  0
 16 15  1  0
 19 18  1  0
 22 18  1  0
 20 19  2  0
 24 19  1  0
 21 20  1  0
 22 21  2  0
 23 22  1  0
 25 24  1  0
 26 25  1  0
 27 26  2  0
 28 26  1  0
 29 28  1  0
 30 29  1  0
A    1
CL
A    2
C10
A    3
C9
A    4
C8
A    5
C11
A    6
C12
A    7
C7
A    8
C6
A    9
N2
A   10
C13
A   11
C19
A   12
C18
A   13
C17
A   14
C15
A   15
O2
A   16
C16
A   17
C14
A   18
N3
A   19
C22
A   20
N5
A   21
N4
A   22
C20
A   23
C21
A   24
C5
A   25
C4
A   26
C3
A   27
O1
A   28
N1
A   29
C2
A   30
C1
M  END
>  <Id>  (1) 
3P5O_EAM_A_1

>  <ChainId>  (1) 
A

>  <AsymId>  (1) 
B

>  <SeqNum>  (1) 
1

>  <Name>  (1) 
2-[(4S)-6-(4-chlorophenyl)-8-methoxy-1-methyl-4H-[1,2,4]triazolo[4,3-a][1,4]benzodiazepin-4-yl]-N-ethylacetamide

>  <SystematicName>  (1) 
2-[(4S)-6-(4-chlorophenyl)-8-methoxy-1-methyl-4H-[1,2,4]triazolo[4,3-a][1,4]benzodiazepin-4-yl]-N-ethyl-ethanamide

>  <Synonyms>  (1) 


>  <Type>  (1) 
NON-POLYMER

>  <Formula>  (1) 
C22 H22 Cl N5 O2

>  <ObservedFormula>  (1) 
C22 Cl N5 O2

>  <MolecularWeight>  (1) 
423.895

>  <ModifiedDate>  (1) 
2011-06-04

>  <Parent>  (1) 


>  <OneLetterCode>  (1) 


>  <SubcomponentList>  (1) 


>  <AmbiguousFlag>  (1) 
N

>  <InsertionCode>  (1) 


>  <InstanceId>  (1) 
3P5O_EAM_A_1

>  <ChemCompId>  (1) 
EAM

>  <PdbId>  (1) 
3P5O

>  <ResidueNumber>  (1) 
1

>  <InChI>  (1) 
InChI=1S/C22H22ClN5O2/c1-4-24-20(29)12-18-22-27-26-13(2)28(22)19-10-9-16(30-3)11-17(19)21(25-18)14-5-7-15(23)8-6-14/h5-11,18H,4,12H2,1-3H3,(H,24,29)/t18-/m0/s1

>  <InChIKey>  (1) 
AAAQFGUYHFJNHI-SFHVURJKSA-N

>  <SMILES>  (1) 
CCNC(=O)C[C@H]1c2nnc(n2-c3ccc(cc3C(=N1)c4ccc(cc4)Cl)OC)C

>  <MissingHeavyAtoms>  (1) 
0

>  <Model>  (1) 
1

>  <AltIds>  (1) 


>  <pKI>  (1) 
7.45

>  <ChemblID>  (1) 
CHEMBL1232461

>  <standardized_canonical_smiles>  (1) 
CCNC(=O)C[C@@H]1N=C(c2ccc(Cl)cc2)c2cc(OC)ccc2-n2c(C)nnc21

$$$$
4NUE_NUE_A_201
     RDKit          3D

 28 30  0  0  0  0  0  0  0  0999 V2000
  -13.6920    3.4370   -0.3270 C   0  0  0  0  0  0  0  0  0  0  0  0
  -14.9250    4.0470   -0.5820 C   0  0  0  0  0  0  0  0  0  0  0  0
  -13.1450    2.5440   -1.2770 C   0  0  0  0  0  0  0  0  0  0  0  0
  -15.5810    3.7440   -1.7620 C   0  0  0  0  0  0  0  0  0  0  0  0
  -13.7720    2.2800   -2.4210 N   0  0  0  0  0  0  0  0  0  0  0  0
  -14.9860    2.8590   -2.6900 C   0  0  0  0  0  0  0  0  0  0  0  0
  -15.5770    2.5540   -3.8690 N   0  0  0  0  0  0  0  0  0  0  0  0
  -16.9140    3.3420   -4.4500 S   0  0  0  0  0  0  0  0  0  0  0  0
  -16.9000    6.0710   -4.4120 C   0  0  0  0  0  0  0  0  0  0  0  0
  -16.4730    4.8630   -5.0460 C   0  0  0  0  0  0  0  0  0  0  0  0
  -16.4940    7.3880   -4.9110 C   0  0  0  0  0  0  0  0  0  0  0  0
  -15.6720    5.0230   -6.2120 C   0  0  0  0  0  0  0  0  0  0  0  0
  -15.7000    7.4450   -6.0240 C   0  0  0  0  0  0  0  0  0  0  0  0
  -15.3000    6.2890   -6.6730 C   0  0  0  0  0  0  0  0  0  0  0  0
  -17.9500    3.8210   -3.5000 O   0  0  0  0  0  0  0  0  0  0  0  0
  -17.2400    2.6230   -5.6570 O   0  0  0  0  0  0  0  0  0  0  0  0
  -15.2090    8.6610   -6.5070 N   0  0  0  0  0  0  0  0  0  0  0  0
  -15.5960    9.7460   -5.9690 N   0  0  0  0  0  0  0  0  0  0  0  0
  -15.0190   10.9530   -6.3990 C   0  0  0  0  0  0  0  0  0  0  0  0
  -14.0160   11.0180   -7.4150 C   0  0  0  0  0  0  0  0  0  0  0  0
  -15.4910   12.1740   -5.8830 C   0  0  0  0  0  0  0  0  0  0  0  0
  -13.4630   12.2070   -7.7450 C   0  0  0  0  0  0  0  0  0  0  0  0
  -14.9880   13.3850   -6.2800 C   0  0  0  0  0  0  0  0  0  0  0  0
  -13.9830   13.4250   -7.2040 C   0  0  0  0  0  0  0  0  0  0  0  0
  -16.5090   12.1360   -4.9590 N   0  0  0  0  0  0  0  0  0  0  0  0
  -15.5070   14.6960   -5.7580 C   0  0  0  0  0  0  0  0  0  0  0  0
  -13.4250   14.5660   -7.5200 O   0  0  0  0  0  0  0  0  0  0  0  0
  -12.3540   12.2480   -8.7560 C   0  0  0  0  0  0  0  0  0  0  0  0
  2  1  2  0
  3  1  1  0
  4  2  1  0
  5  3  2  0
  6  4  2  0
  6  5  1  0
  7  6  1  0
  8  7  1  0
 10  8  1  0
 15  8  2  0
 16  8  2  0
 10  9  2  0
 11  9  1  0
 12 10  1  0
 13 11  2  0
 14 12  2  0
 14 13  1  0
 17 13  1  0
 18 17  2  0
 19 18  1  0
 20 19  2  0
 21 19  1  0
 22 20  1  0
 23 21  2  0
 25 21  1  0
 24 22  2  0
 28 22  1  0
 24 23  1  0
 26 23  1  0
 27 24  1  0
A    1
C1
A    2
C2
A    3
C3
A    4
C4
A    5
N5
A    6
C6
A    7
N7
A    8
S8
A    9
C9
A   10
C10
A   11
C11
A   12
C12
A   13
C13
A   14
C14
A   15
O15
A   16
O16
A   17
N17
A   18
N18
A   19
C19
A   20
C20
A   21
C21
A   22
C22
A   23
C23
A   24
C24
A   25
N25
A   26
C26
A   27
O27
A   28
C28
M  END
>  <Id>  (2) 
4NUE_NUE_A_201

>  <ChainId>  (2) 
A

>  <AsymId>  (2) 
B

>  <SeqNum>  (2) 
201

>  <Name>  (2) 
4-[(E)-(2-amino-4-hydroxy-3,5-dimethylphenyl)diazenyl]-N-(pyridin-2-yl)benzenesulfonamide

>  <SystematicName>  (2) 
4-[(E)-(2-azanyl-3,5-dimethyl-4-oxidanyl-phenyl)diazenyl]-N-pyridin-2-yl-benzenesulfonamide

>  <Synonyms>  (2) 


>  <Type>  (2) 
NON-POLYMER

>  <Formula>  (2) 
C19 H19 N5 O3 S

>  <ObservedFormula>  (2) 
C19 S N5 O3

>  <MolecularWeight>  (2) 
397.451

>  <ModifiedDate>  (2) 
2014-03-28

>  <Parent>  (2) 


>  <OneLetterCode>  (2) 


>  <SubcomponentList>  (2) 


>  <AmbiguousFlag>  (2) 
N

>  <InsertionCode>  (2) 


>  <InstanceId>  (2) 
4NUE_NUE_A_201

>  <ChemCompId>  (2) 
NUE

>  <PdbId>  (2) 
4NUE

>  <ResidueNumber>  (2) 
201

>  <InChI>  (2) 
InChI=1S/C19H19N5O3S/c1-12-11-16(18(20)13(2)19(12)25)23-22-14-6-8-15(9-7-14)28(26,27)24-17-5-3-4-10-21-17/h3-11,25H,20H2,1-2H3,(H,21,24)/b23-22+

>  <InChIKey>  (2) 
PJXWUXARDBIOKJ-GHVJWSGMSA-N

>  <SMILES>  (2) 
Cc1cc(c(c(c1O)C)N)/N=N/c2ccc(cc2)S(=O)(=O)Nc3ccccn3

>  <MissingHeavyAtoms>  (2) 
0

>  <Model>  (2) 
1

>  <AltIds>  (2) 


>  <pKI>  (2) 
6.67

>  <ChemblID>  (2) 
CHEMBL3086884

>  <standardized_canonical_smiles>  (2) 
Cc1cc(/N=N/c2ccc(S(=O)(=O)Nc3ccccn3)cc2)c(N)c(C)c1O

$$$$
4NUE_EDO_A_202
     RDKit          3D

  4  3  0  0  0  0  0  0  0  0999 V2000
  -12.1790   22.4420  -16.1150 C   0  0  0  0  0  0  0  0  0  0  0  0
  -13.4250   22.6390  -16.7890 O   0  0  0  0  0  0  0  0  0  0  0  0
  -11.3840   21.3470  -16.7830 C   0  0  0  0  0  0  0  0  0  0  0  0
  -12.0460   20.0510  -16.6410 O   0  0  0  0  0  0  0  0  0  0  0  0
  2  1  1  0
  3  1  1  0
  4  3  1  0
A    1
C1
A    2
O1
A    3
C2
A    4
O2
M  END
>  <Id>  (3) 
4NUE_EDO_A_202

>  <ChainId>  (3) 
A

>  <AsymId>  (3) 
C

>  <SeqNum>  (3) 
202

>  <Name>  (3) 
1,2-ETHANEDIOL

>  <SystematicName>  (3) 
ethane-1,2-diol

>  <Synonyms>  (3) 
ETHYLENE GLYCOL

>  <Type>  (3) 
NON-POLYMER

>  <Formula>  (3) 
C2 H6 O2

>  <ObservedFormula>  (3) 
C2 O2

>  <MolecularWeight>  (3) 
62.068

>  <ModifiedDate>  (3) 
2011-06-04

>  <Parent>  (3) 


>  <OneLetterCode>  (3) 


>  <SubcomponentList>  (3) 


>  <AmbiguousFlag>  (3) 
N

>  <InsertionCode>  (3) 


>  <InstanceId>  (3) 
4NUE_EDO_A_202

>  <ChemCompId>  (3) 
EDO

>  <PdbId>  (3) 
4NUE

>  <ResidueNumber>  (3) 
202

>  <InChI>  (3) 
InChI=1S/C2H6O2/c3-1-2-4/h3-4H,1-2H2

>  <InChIKey>  (3) 
LYCAIKOWRPUZTN-UHFFFAOYSA-N

>  <SMILES>  (3) 
C(CO)O

>  <MissingHeavyAtoms>  (3) 
0

>  <Model>  (3) 
1

>  <AltIds>  (3) 


>  <pKI>  (3) 
6.67

>  <ChemblID>  (3) 
CHEMBL3086884

>  <standardized_canonical_smiles>  (3) 
Cc1cc(/N=N/c2ccc(S(=O)(=O)Nc3ccccn3)cc2)c(N)c(C)c1O

$$$$
4Z93_4LD_A_501
     RDKit          3D

 31 36  0  0  0  0  0  0  0  0999 V2000
   16.3430   -7.4940    9.5250 C   0  0  0  0  0  0  0  0  0  0  0  0
   18.1460   -5.3920    8.7370 C   0  0  0  0  0  0  0  0  0  0  0  0
   19.0040   -4.4430    8.1980 C   0  0  0  0  0  0  0  0  0  0  0  0
   20.2450   -3.8670    8.6390 C   0  0  0  0  0  0  0  0  0  0  0  0
   21.0110   -3.9440    9.8000 C   0  0  0  0  0  0  0  0  0  0  0  0
   15.2480   -6.9180    5.6550 C   0  0  0  0  0  0  0  0  0  0  0  0
   14.4390   -4.8440    5.5870 C   0  0  0  0  0  0  0  0  0  0  0  0
   21.3190   -5.6440   11.6520 C   0  0  0  0  0  0  0  0  0  0  0  0
   13.5020   -5.6720    5.0880 N   0  0  0  0  0  0  0  0  0  0  0  0
   13.9930   -6.9580    5.1230 O   0  0  0  0  0  0  0  0  0  0  0  0
   20.6020   -4.6340   10.9890 C   0  0  0  0  0  0  0  0  0  0  0  0
   20.7100   -3.0580    7.5560 C   0  0  0  0  0  0  0  0  0  0  0  0
   16.0030   -8.1740    5.7520 C   0  0  0  0  0  0  0  0  0  0  0  0
   15.5740   -5.6330    5.9890 C   0  0  0  0  0  0  0  0  0  0  0  0
   16.7770   -5.2010    6.6980 C   0  0  0  0  0  0  0  0  0  0  0  0
   18.7580   -3.9110    6.9180 C   0  0  0  0  0  0  0  0  0  0  0  0
   17.0110   -5.7660    7.9700 C   0  0  0  0  0  0  0  0  0  0  0  0
   20.5160   -6.0370   12.6970 N   0  0  0  0  0  0  0  0  0  0  0  0
   14.2790   -3.3760    5.6710 C   0  0  0  0  0  0  0  0  0  0  0  0
   16.0530   -6.6700    8.4170 O   0  0  0  0  0  0  0  0  0  0  0  0
   22.6540   -6.2430   11.3800 C   0  0  0  0  0  0  0  0  0  0  0  0
   19.3770   -4.4860   11.7240 C   0  0  0  0  0  0  0  0  0  0  0  0
   18.2640   -3.5490   11.4640 C   0  0  0  0  0  0  0  0  0  0  0  0
   17.4220   -3.0260   12.6190 C   0  0  0  0  0  0  0  0  0  0  0  0
   16.8400   -4.0360   11.6930 C   0  0  0  0  0  0  0  0  0  0  0  0
   22.6470   -2.5870    8.7850 C   0  0  0  0  0  0  0  0  0  0  0  0
   21.9420   -2.4110    7.5900 C   0  0  0  0  0  0  0  0  0  0  0  0
   17.6740   -4.2630    6.1650 C   0  0  0  0  0  0  0  0  0  0  0  0
   19.3350   -5.3610   12.7590 N   0  0  0  0  0  0  0  0  0  0  0  0
   22.2240   -3.2870    9.8600 N   0  0  0  0  0  0  0  0  0  0  0  0
   19.8000   -3.0580    6.5410 N   0  0  0  0  0  0  0  0  0  0  0  0
 20  1  1  0
  3  2  2  0
 17  2  1  0
  4  3  1  0
 16  3  1  0
  5  4  2  0
 12  4  1  0
 11  5  1  0
 30  5  1  0
 10  6  1  0
 13  6  1  0
 14  6  2  0
  9  7  2  0
 14  7  1  0
 19  7  1  0
 11  8  2  0
 18  8  1  0
 21  8  1  0
 10  9  1  0
 22 11  1  0
 27 12  2  0
 31 12  1  0
 15 14  1  0
 17 15  2  0
 28 15  1  0
 28 16  2  0
 31 16  1  0
 20 17  1  0
 29 18  1  0
 23 22  1  0
 29 22  2  0
 24 23  1  0
 25 23  1  0
 25 24  1  0
 27 26  1  0
 30 26  2  0
A    1
C8
A    2
C9
A    3
C10
A    4
C13
A    5
C14
A    6
C3
A    7
C2
A    8
C16
A    9
N1
A   10
O1
A   11
C15
A   12
C12
A   13
C4
A   14
C5
A   15
C6
A   16
C11
A   17
C7
A   18
N3
A   19
C1
A   20
O2
A   21
C17
A   22
C18
A   23
C19
A   24
C20
A   25
C21
A   26
C22
A   27
C23
A   28
C24
A   29
N4
A   30
N5
A   31
N2
M  END
>  <Id>  (4) 
4Z93_4LD_A_501

>  <ChainId>  (4) 
A

>  <AsymId>  (4) 
B

>  <SeqNum>  (4) 
501

>  <Name>  (4) 
1-(3-cyclopropyl-5-methyl-1H-pyrazol-4-yl)-7-(3,5-dimethyl-1,2-oxazol-4-yl)-8-methoxy-5H-pyrido[4,3-b]indole

>  <SystematicName>  (4) 
4-[1-(3-cyclopropyl-5-methyl-1H-pyrazol-4-yl)-8-methoxy-5H-pyrido[4,3-b]indol-7-yl]-3,5-dimethyl-1,2-oxazole

>  <Synonyms>  (4) 


>  <Type>  (4) 
NON-POLYMER

>  <Formula>  (4) 
C24 H23 N5 O2

>  <ObservedFormula>  (4) 
C24 N5 O2

>  <MolecularWeight>  (4) 
413.472

>  <ModifiedDate>  (4) 
2015-06-26

>  <Parent>  (4) 


>  <OneLetterCode>  (4) 


>  <SubcomponentList>  (4) 


>  <AmbiguousFlag>  (4) 
N

>  <InsertionCode>  (4) 


>  <InstanceId>  (4) 
4Z93_4LD_A_501

>  <ChemCompId>  (4) 
4LD

>  <PdbId>  (4) 
4Z93

>  <ResidueNumber>  (4) 
501

>  <InChI>  (4) 
InChI=1S/C24H23N5O2/c1-11-21(23(28-27-11)14-5-6-14)24-22-15-10-19(30-4)16(20-12(2)29-31-13(20)3)9-18(15)26-17(22)7-8-25-24/h7-10,14,26H,5-6H2,1-4H3,(H,27,28)

>  <InChIKey>  (4) 
WHDUHJYPRJXLGF-UHFFFAOYSA-N

>  <SMILES>  (4) 
Cc1c(c(n[nH]1)C2CC2)c3c4c(ccn3)[nH]c5c4cc(c(c5)c6c(noc6C)C)OC

>  <MissingHeavyAtoms>  (4) 
0

>  <Model>  (4) 
1

>  <AltIds>  (4) 


>  <pKI>  (4) 
7.76

>  <ChemblID>  (4) 
CHEMBL3581661

>  <standardized_canonical_smiles>  (4) 
COc1cc2c(cc1-c1c(C)noc1C)[nH]c1ccnc(-c3c(C4CC4)n[nH]c3C)c12

$$$$
5WMD_6JE_A_201
     RDKit          3D

 34 38  0  0  0  0  0  0  0  0999 V2000
   11.3950   -3.4220    1.5950 C   0  0  0  0  0  0  0  0  0  0  0  0
   13.5840   -5.1210   -0.7570 N   0  0  0  0  0  0  0  0  0  0  0  0
   13.3180   -4.1890    0.2120 N   0  0  0  0  0  0  0  0  0  0  0  0
   12.0610   -4.2780    0.5720 C   0  0  0  0  0  0  0  0  0  0  0  0
    7.2420   -7.5220   -1.7700 C   0  0  0  0  0  0  0  0  0  0  0  0
    6.7790   -7.2090    1.2760 C   0  0  0  0  0  0  0  0  0  0  0  0
    9.3080   -6.0480    1.3720 S   0  0  0  0  0  0  0  0  0  0  0  0
    7.9960   -6.7660    0.5250 C   0  0  0  0  0  0  0  0  0  0  0  0
    8.2120   -6.8770   -0.8340 C   0  0  0  0  0  0  0  0  0  0  0  0
    6.4420   -3.8550   -6.8100 Cl  0  0  0  0  0  0  0  0  0  0  0  0
    9.4180   -5.7880   -4.9640 C   0  0  0  0  0  0  0  0  0  0  0  0
    8.6030   -5.2540   -5.9540 C   0  0  0  0  0  0  0  0  0  0  0  0
    7.4660   -4.5430   -5.5960 C   0  0  0  0  0  0  0  0  0  0  0  0
    7.1370   -4.3570   -4.2550 C   0  0  0  0  0  0  0  0  0  0  0  0
    7.9430   -4.8980   -3.2680 C   0  0  0  0  0  0  0  0  0  0  0  0
    9.0840   -5.6260   -3.6160 C   0  0  0  0  0  0  0  0  0  0  0  0
   12.1100   -9.3160   -3.3110 O   0  0  0  0  0  0  0  0  0  0  0  0
   12.2440  -12.1930   -8.8810 O   0  0  0  0  0  0  0  0  0  0  0  0
   12.3420   -9.0690   -6.9930 C   0  0  0  0  0  0  0  0  0  0  0  0
   12.0420  -10.0190   -7.9880 C   0  0  0  0  0  0  0  0  0  0  0  0
   12.5650  -11.3070   -7.8950 C   0  0  0  0  0  0  0  0  0  0  0  0
   13.4010  -11.6680   -6.8480 C   0  0  0  0  0  0  0  0  0  0  0  0
   13.7020  -10.7110   -5.8680 C   0  0  0  0  0  0  0  0  0  0  0  0
   13.1820   -9.4220   -5.9240 C   0  0  0  0  0  0  0  0  0  0  0  0
   13.4630   -8.4710   -4.9140 N   0  0  0  0  0  0  0  0  0  0  0  0
   12.9180   -8.4970   -3.6560 C   0  0  0  0  0  0  0  0  0  0  0  0
   13.3870   -7.3770   -2.7130 C   0  0  0  0  0  0  0  0  0  0  0  0
   12.1720   -6.8900   -1.9190 C   0  0  0  0  0  0  0  0  0  0  0  0
   11.2140   -6.3340   -2.8970 N   0  0  0  0  0  0  0  0  0  0  0  0
    9.9780   -6.1770   -2.5710 C   0  0  0  0  0  0  0  0  0  0  0  0
    9.4890   -6.3280   -1.1900 C   0  0  0  0  0  0  0  0  0  0  0  0
   10.1590   -5.8410   -0.0920 C   0  0  0  0  0  0  0  0  0  0  0  0
   11.4680   -5.3090   -0.1240 N   0  0  0  0  0  0  0  0  0  0  0  0
   12.4700   -5.7930   -0.9450 C   0  0  0  0  0  0  0  0  0  0  0  0
  4  1  1  0
  3  2  1  0
 34  2  2  0
  4  3  2  0
 33  4  1  0
  9  5  1  0
  8  6  1  0
  8  7  1  0
 32  7  1  0
  9  8  2  0
 31  9  1  0
 13 10  1  0
 12 11  2  0
 16 11  1  0
 13 12  1  0
 14 13  2  0
 15 14  1  0
 16 15  2  0
 30 16  1  0
 26 17  2  0
 21 18  1  0
 20 19  2  0
 24 19  1  0
 21 20  1  0
 22 21  2  0
 23 22  1  0
 24 23  2  0
 25 24  1  0
 26 25  1  0
 27 26  1  0
 28 27  1  0
 29 28  1  0
 34 28  1  0
 30 29  2  0
 31 30  1  0
 32 31  2  0
 33 32  1  0
 34 33  1  0
A    1
C1
A    2
N5
A    3
N6
A    4
C7
A    5
C8
A    6
C12
A    7
S16
A    8
C17
A    9
C18
A   10
CL
A   11
C20
A   12
C22
A   13
C24
A   14
C25
A   15
C27
A   16
C29
A   17
O30
A   18
O31
A   19
C33
A   20
C35
A   21
C37
A   22
C38
A   23
C40
A   24
C42
A   25
N43
A   26
C45
A   27
C46
A   28
C49
A   29
N51
A   30
C52
A   31
C53
A   32
C54
A   33
N55
A   34
C56
M  END
>  <Id>  (5) 
5WMD_6JE_A_201

>  <ChainId>  (5) 
A

>  <AsymId>  (5) 
B

>  <SeqNum>  (5) 
201

>  <Name>  (5) 
2-[(6S)-4-(4-chlorophenyl)-2,3,9-trimethyl-6H-thieno[3,2-f][1,2,4]triazolo[4,3-a][1,4]diazepin-6-yl]-N-(4-hydroxyphenyl)acetamide

>  <SystematicName>  (5) 
2-[(9~{S})-7-(4-chlorophenyl)-4,5,13-trimethyl-3-thia-1,8,11,12-tetraazatricyclo[8.3.0.0^{2,6}]trideca-2(6),4,7,10,12-pentaene-9-yl]-~{N}-(4-hydroxyphenyl)ethanamide

>  <Synonyms>  (5) 


>  <Type>  (5) 
NON-POLYMER

>  <Formula>  (5) 
C25 H22 Cl N5 O2 S

>  <ObservedFormula>  (5) 
C25 S Cl N5 O2

>  <MolecularWeight>  (5) 
491.992

>  <ModifiedDate>  (5) 
2018-07-27

>  <Parent>  (5) 


>  <OneLetterCode>  (5) 


>  <SubcomponentList>  (5) 


>  <AmbiguousFlag>  (5) 
N

>  <InsertionCode>  (5) 


>  <InstanceId>  (5) 
5WMD_6JE_A_201

>  <ChemCompId>  (5) 
6JE

>  <PdbId>  (5) 
5WMD

>  <ResidueNumber>  (5) 
201

>  <InChI>  (5) 
InChI=1S/C25H22ClN5O2S/c1-13-14(2)34-25-22(13)23(16-4-6-17(26)7-5-16)28-20(24-30-29-15(3)31(24)25)12-21(33)27-18-8-10-19(32)11-9-18/h4-11,20,32H,12H2,1-3H3,(H,27,33)/t20-/m0/s1

>  <InChIKey>  (5) 
GNMUEVRJHCWKTO-FQEVSTJZSA-N

>  <SMILES>  (5) 
Cc1c(sc-2c1C(=N[C@H](c3n2c(nn3)C)CC(=O)Nc4ccc(cc4)O)c5ccc(cc5)Cl)C

>  <MissingHeavyAtoms>  (5) 
0

>  <Model>  (5) 
1

>  <AltIds>  (5) 


>  <pKI>  (5) 
8.09

>  <ChemblID>  (5) 
CHEMBL3581647

>  <standardized_canonical_smiles>  (5) 
Cc1sc2c(c1C)C(c1ccc(Cl)cc1)=N[C@@H](CC(=O)Nc1ccc(O)cc1)c1nnc(C)n1-2

$$$$
4OGI_R78_B_202
     RDKit          3D

 38 42  0  0  0  0  0  0  0  0999 V2000
   18.1120    5.5120   37.1490 N   0  0  0  0  0  0  0  0  0  0  0  0
   18.1170    9.6410   36.9000 N   0  0  0  0  0  0  0  0  0  0  0  0
   17.4440    6.2410   38.0620 C   0  0  0  0  0  0  0  0  0  0  0  0
   17.6820   10.4170   38.0450 C   0  0  0  0  0  0  0  0  0  0  0  0
   16.6580    9.7310   38.9550 C   0  0  0  0  0  0  0  0  0  0  0  0
   19.9600    5.8760   34.0620 C   0  0  0  0  0  0  0  0  0  0  0  0
   18.6510   10.3010   35.7290 C   0  0  0  0  0  0  0  0  0  0  0  0
   19.7010    9.6540   39.5250 C   0  0  0  0  0  0  0  0  0  0  0  0
   20.4680   11.2620   34.5390 C   0  0  0  0  0  0  0  0  0  0  0  0
   18.3030   11.8110   35.5280 C   0  0  0  0  0  0  0  0  0  0  0  0
   21.3680    5.0480   32.2900 C   0  0  0  0  0  0  0  0  0  0  0  0
   19.9290    7.0960   33.4720 C   0  0  0  0  0  0  0  0  0  0  0  0
   22.0590    6.4620   30.4220 C   0  0  0  0  0  0  0  0  0  0  0  0
   22.7260    7.8070   28.4920 C   0  0  0  0  0  0  0  0  0  0  0  0
   22.5290    8.9290   26.2790 C   0  0  0  0  0  0  0  0  0  0  0  0
   24.6690    8.6590   27.2960 C   0  0  0  0  0  0  0  0  0  0  0  0
   22.6820    5.5020   29.9600 O   0  0  0  0  0  0  0  0  0  0  0  0
   22.0350    7.6610   29.8460 N   0  0  0  0  0  0  0  0  0  0  0  0
   24.1110    8.3280   28.6950 C   0  0  0  0  0  0  0  0  0  0  0  0
   23.8260    9.5590   26.4960 N   0  0  0  0  0  0  0  0  0  0  0  0
   24.4300    9.8110   25.1100 C   0  0  0  0  0  0  0  0  0  0  0  0
   21.8470    8.6550   27.6110 C   0  0  0  0  0  0  0  0  0  0  0  0
   21.3440    6.2980   31.7030 C   0  0  0  0  0  0  0  0  0  0  0  0
   20.6810    4.8340   33.4340 C   0  0  0  0  0  0  0  0  0  0  0  0
   20.6310    3.5680   34.0860 O   0  0  0  0  0  0  0  0  0  0  0  0
   21.1530    2.3680   33.3800 C   0  0  0  0  0  0  0  0  0  0  0  0
   20.6180    7.3290   32.2710 C   0  0  0  0  0  0  0  0  0  0  0  0
   19.3430    5.4970   35.2330 N   0  0  0  0  0  0  0  0  0  0  0  0
   18.7060    6.2640   36.1250 C   0  0  0  0  0  0  0  0  0  0  0  0
   18.7130    7.6070   35.9840 N   0  0  0  0  0  0  0  0  0  0  0  0
   18.0540    8.2740   36.9630 C   0  0  0  0  0  0  0  0  0  0  0  0
   19.2290   12.1210   34.3280 C   0  0  0  0  0  0  0  0  0  0  0  0
   20.1530   10.3080   35.6930 C   0  0  0  0  0  0  0  0  0  0  0  0
   18.8670   10.8020   38.9780 C   0  0  0  0  0  0  0  0  0  0  0  0
   16.0160   10.4240   39.7750 O   0  0  0  0  0  0  0  0  0  0  0  0
   16.5110    8.3820   38.8700 N   0  0  0  0  0  0  0  0  0  0  0  0
   15.4930    7.7090   39.7420 C   0  0  0  0  0  0  0  0  0  0  0  0
   17.3570    7.6180   38.0310 C   0  0  0  0  0  0  0  0  0  0  0  0
  3  1  2  0
 29  1  1  0
  4  2  1  0
  7  2  1  0
 31  2  1  0
 38  3  1  0
  5  4  1  0
 34  4  1  0
 35  5  2  0
 36  5  1  0
 12  6  1  0
 24  6  2  0
 28  6  1  0
 10  7  1  0
 33  7  1  0
 34  8  1  0
 32  9  1  0
 33  9  1  0
 32 10  1  0
 23 11  2  0
 24 11  1  0
 27 12  2  0
 17 13  2  0
 18 13  1  0
 23 13  1  0
 18 14  1  0
 19 14  1  0
 22 14  1  0
 20 15  1  0
 22 15  1  0
 19 16  1  0
 20 16  1  0
 21 20  1  0
 27 23  1  0
 25 24  1  0
 26 25  1  0
 29 28  1  0
 30 29  2  0
 31 30  1  0
 38 31  2  0
 37 36  1  0
 38 36  1  0
A    1
N1
A    2
N3
A    3
C4
A    4
C5
A    5
C6
A    6
C7
A    7
C8
A    8
C10
A    9
C13
A   10
C15
A   11
C17
A   12
C20
A   13
C21
A   14
C22
A   15
C24
A   16
C28
A   17
O2
A   18
N6
A   19
C29
A   20
N7
A   21
C30
A   22
C23
A   23
C18
A   24
C16
A   25
O3
A   26
C31
A   27
C19
A   28
N5
A   29
C1
A   30
N2
A   31
C2
A   32
C14
A   33
C12
A   34
C9
A   35
O1
A   36
N4
A   37
C11
A   38
C3
M  END
>  <Id>  (6) 
4OGI_R78_B_202

>  <ChainId>  (6) 
B

>  <AsymId>  (6) 
F

>  <SeqNum>  (6) 
202

>  <Name>  (6) 
4-{[(7R)-8-cyclopentyl-7-ethyl-5-methyl-6-oxo-5,6,7,8-tetrahydropteridin-2-yl]amino}-3-methoxy-N-(1-methylpiperidin-4-yl)benzamide

>  <SystematicName>  (6) 
4-[[(7R)-8-cyclopentyl-7-ethyl-5-methyl-6-oxo-7H-pteridin-2-yl]amino]-3-methoxy-N-(1-methylpiperidin-4-yl)benzamide

>  <Synonyms>  (6) 


>  <Type>  (6) 
NON-POLYMER

>  <Formula>  (6) 
C28 H39 N7 O3

>  <ObservedFormula>  (6) 
C28 N7 O3

>  <MolecularWeight>  (6) 
521.654

>  <ModifiedDate>  (6) 
2011-06-04

>  <Parent>  (6) 


>  <OneLetterCode>  (6) 


>  <SubcomponentList>  (6) 


>  <AmbiguousFlag>  (6) 
N

>  <InsertionCode>  (6) 


>  <InstanceId>  (6) 
4OGI_R78_B_202

>  <ChemCompId>  (6) 
R78

>  <PdbId>  (6) 
4OGI

>  <ResidueNumber>  (6) 
202

>  <InChI>  (6) 
InChI=1S/C28H39N7O3/c1-5-22-27(37)34(3)23-17-29-28(32-25(23)35(22)20-8-6-7-9-20)31-21-11-10-18(16-24(21)38-4)26(36)30-19-12-14-33(2)15-13-19/h10-11,16-17,19-20,22H,5-9,12-15H2,1-4H3,(H,30,36)(H,29,31,32)/t22-/m1/s1

>  <InChIKey>  (6) 
XQVVPGYIWAGRNI-JOCHJYFZSA-N

>  <SMILES>  (6) 
CC[C@@H]1C(=O)N(c2cnc(nc2N1C3CCCC3)Nc4ccc(cc4OC)C(=O)NC5CCN(CC5)C)C

>  <MissingHeavyAtoms>  (6) 
0

>  <Model>  (6) 
1

>  <AltIds>  (6) 


>  <pKI>  (6) 
7.25

>  <ChemblID>  (6) 
CHEMBL513909

>  <standardized_canonical_smiles>  (6) 
CC[C@@H]1C(=O)N(C)c2cnc(Nc3ccc(C(=O)NC4CCN(C)CC4)cc3OC)nc2N1C1CCCC1

$$$$
4O74_R78_B_201
     RDKit          3D

 38 42  0  0  0  0  0  0  0  0999 V2000
    3.2720  -35.3180  -20.4230 N   0  0  0  0  0  0  0  0  0  0  0  0
    3.3480  -39.4930  -20.6950 N   0  0  0  0  0  0  0  0  0  0  0  0
    3.9740  -36.0030  -19.5010 C   0  0  0  0  0  0  0  0  0  0  0  0
    3.6350  -40.2270  -19.5200 C   0  0  0  0  0  0  0  0  0  0  0  0
    4.6710  -39.5270  -18.5980 C   0  0  0  0  0  0  0  0  0  0  0  0
    1.3170  -35.5830  -23.5310 C   0  0  0  0  0  0  0  0  0  0  0  0
    2.6570  -40.0460  -21.9070 C   0  0  0  0  0  0  0  0  0  0  0  0
    1.6110  -39.3590  -18.1450 C   0  0  0  0  0  0  0  0  0  0  0  0
    2.0850  -41.8680  -23.2700 C   0  0  0  0  0  0  0  0  0  0  0  0
    1.1700  -40.0270  -21.9720 C   0  0  0  0  0  0  0  0  0  0  0  0
   -0.0130  -34.6640  -25.3070 C   0  0  0  0  0  0  0  0  0  0  0  0
    1.2420  -36.8540  -24.0490 C   0  0  0  0  0  0  0  0  0  0  0  0
   -0.9030  -36.0820  -27.1250 C   0  0  0  0  0  0  0  0  0  0  0  0
   -1.6590  -37.5480  -29.0050 C   0  0  0  0  0  0  0  0  0  0  0  0
   -1.6100  -38.6260  -31.1640 C   0  0  0  0  0  0  0  0  0  0  0  0
   -3.6930  -38.2910  -30.1110 C   0  0  0  0  0  0  0  0  0  0  0  0
   -1.4760  -35.1280  -27.6340 O   0  0  0  0  0  0  0  0  0  0  0  0
   -0.9170  -37.3760  -27.7230 N   0  0  0  0  0  0  0  0  0  0  0  0
   -2.9900  -38.0770  -28.7850 C   0  0  0  0  0  0  0  0  0  0  0  0
   -2.9530  -39.1200  -30.9710 N   0  0  0  0  0  0  0  0  0  0  0  0
   -3.5200  -39.3660  -32.0440 C   0  0  0  0  0  0  0  0  0  0  0  0
   -0.8770  -38.3340  -29.8830 C   0  0  0  0  0  0  0  0  0  0  0  0
   -0.1120  -35.9430  -25.8370 C   0  0  0  0  0  0  0  0  0  0  0  0
    0.6800  -34.5140  -24.1490 C   0  0  0  0  0  0  0  0  0  0  0  0
    0.8580  -33.2640  -23.5470 O   0  0  0  0  0  0  0  0  0  0  0  0
    0.4020  -32.1460  -24.3390 C   0  0  0  0  0  0  0  0  0  0  0  0
    0.5180  -37.0320  -25.2320 C   0  0  0  0  0  0  0  0  0  0  0  0
    1.9770  -35.1650  -22.3430 N   0  0  0  0  0  0  0  0  0  0  0  0
    2.6330  -35.9520  -21.4410 C   0  0  0  0  0  0  0  0  0  0  0  0
    2.6560  -37.3180  -21.5420 N   0  0  0  0  0  0  0  0  0  0  0  0
    3.3320  -38.0310  -20.6340 C   0  0  0  0  0  0  0  0  0  0  0  0
    0.8540  -40.9290  -23.1470 C   0  0  0  0  0  0  0  0  0  0  0  0
    2.9950  -41.4970  -22.0920 C   0  0  0  0  0  0  0  0  0  0  0  0
    2.4050  -40.5690  -18.6280 C   0  0  0  0  0  0  0  0  0  0  0  0
    5.3370  -40.2160  -17.8050 O   0  0  0  0  0  0  0  0  0  0  0  0
    4.8040  -38.1760  -18.6660 N   0  0  0  0  0  0  0  0  0  0  0  0
    5.8010  -37.5120  -17.8300 C   0  0  0  0  0  0  0  0  0  0  0  0
    4.0260  -37.4040  -19.5870 C   0  0  0  0  0  0  0  0  0  0  0  0
  3  1  2  0
 29  1  1  0
  4  2  1  0
  7  2  1  0
 31  2  1  0
 38  3  1  0
  5  4  1  0
 34  4  1  0
 35  5  2  0
 36  5  1  0
 12  6  1  0
 24  6  2  0
 28  6  1  0
 10  7  1  0
 33  7  1  0
 34  8  1  0
 32  9  1  0
 33  9  1  0
 32 10  1  0
 23 11  2  0
 24 11  1  0
 27 12  2  0
 17 13  2  0
 18 13  1  0
 23 13  1  0
 18 14  1  0
 19 14  1  0
 22 14  1  0
 20 15  1  0
 22 15  1  0
 19 16  1  0
 20 16  1  0
 21 20  1  0
 27 23  1  0
 25 24  1  0
 26 25  1  0
 29 28  1  0
 30 29  2  0
 31 30  1  0
 38 31  2  0
 37 36  1  0
 38 36  1  0
A    1
N1
A    2
N3
A    3
C4
A    4
C5
A    5
C6
A    6
C7
A    7
C8
A    8
C10
A    9
C13
A   10
C15
A   11
C17
A   12
C20
A   13
C21
A   14
C22
A   15
C24
A   16
C28
A   17
O2
A   18
N6
A   19
C29
A   20
N7
A   21
C30
A   22
C23
A   23
C18
A   24
C16
A   25
O3
A   26
C31
A   27
C19
A   28
N5
A   29
C1
A   30
N2
A   31
C2
A   32
C14
A   33
C12
A   34
C9
A   35
O1
A   36
N4
A   37
C11
A   38
C3
M  END
>  <Id>  (7) 
4O74_R78_B_201

>  <ChainId>  (7) 
B

>  <AsymId>  (7) 
F

>  <SeqNum>  (7) 
201

>  <Name>  (7) 
4-{[(7R)-8-cyclopentyl-7-ethyl-5-methyl-6-oxo-5,6,7,8-tetrahydropteridin-2-yl]amino}-3-methoxy-N-(1-methylpiperidin-4-yl)benzamide

>  <SystematicName>  (7) 
4-[[(7R)-8-cyclopentyl-7-ethyl-5-methyl-6-oxo-7H-pteridin-2-yl]amino]-3-methoxy-N-(1-methylpiperidin-4-yl)benzamide

>  <Synonyms>  (7) 


>  <Type>  (7) 
NON-POLYMER

>  <Formula>  (7) 
C28 H39 N7 O3

>  <ObservedFormula>  (7) 
C28 N7 O3

>  <MolecularWeight>  (7) 
521.654

>  <ModifiedDate>  (7) 
2011-06-04

>  <Parent>  (7) 


>  <OneLetterCode>  (7) 


>  <SubcomponentList>  (7) 


>  <AmbiguousFlag>  (7) 
N

>  <InsertionCode>  (7) 


>  <InstanceId>  (7) 
4O74_R78_B_201

>  <ChemCompId>  (7) 
R78

>  <PdbId>  (7) 
4O74

>  <ResidueNumber>  (7) 
201

>  <InChI>  (7) 
InChI=1S/C28H39N7O3/c1-5-22-27(37)34(3)23-17-29-28(32-25(23)35(22)20-8-6-7-9-20)31-21-11-10-18(16-24(21)38-4)26(36)30-19-12-14-33(2)15-13-19/h10-11,16-17,19-20,22H,5-9,12-15H2,1-4H3,(H,30,36)(H,29,31,32)/t22-/m1/s1

>  <InChIKey>  (7) 
XQVVPGYIWAGRNI-JOCHJYFZSA-N

>  <SMILES>  (7) 
CC[C@@H]1C(=O)N(c2cnc(nc2N1C3CCCC3)Nc4ccc(cc4OC)C(=O)NC5CCN(CC5)C)C

>  <MissingHeavyAtoms>  (7) 
0

>  <Model>  (7) 
1

>  <AltIds>  (7) 


>  <pKI>  (7) 
7.25

>  <ChemblID>  (7) 
CHEMBL513909

>  <standardized_canonical_smiles>  (7) 
CC[C@@H]1C(=O)N(C)c2cnc(Nc3ccc(C(=O)NC4CCN(C)CC4)cc3OC)nc2N1C1CCCC1

$$$$
6DJC_CF6_A_501
     RDKit          3D

 64 71  0  0  0  0  0  0  0  0999 V2000
  -27.4110   13.0650   26.1080 Cl  0  0  0  0  0  0  0  0  0  0  0  0
  -26.9400   12.7080   27.7890 C   0  0  0  0  0  0  0  0  0  0  0  0
  -27.4800   11.5980   28.4130 C   0  0  0  0  0  0  0  0  0  0  0  0
  -27.1120   11.3170   29.7150 C   0  0  0  0  0  0  0  0  0  0  0  0
  -26.0510   13.5470   28.4490 C   0  0  0  0  0  0  0  0  0  0  0  0
  -25.6800   13.2680   29.7570 C   0  0  0  0  0  0  0  0  0  0  0  0
  -26.2180   12.1510   30.3900 C   0  0  0  0  0  0  0  0  0  0  0  0
  -25.8330   11.8360   31.8040 C   0  0  0  0  0  0  0  0  0  0  0  0
  -25.8720   10.4090   32.2390 C   0  0  0  0  0  0  0  0  0  0  0  0
  -25.3230    9.2530   31.4350 C   0  0  0  0  0  0  0  0  0  0  0  0
  -24.6150    9.3020   30.1060 C   0  0  0  0  0  0  0  0  0  0  0  0
  -25.5620   12.7730   32.6050 N   0  0  0  0  0  0  0  0  0  0  0  0
  -25.2010   12.4610   33.9770 C   0  0  0  0  0  0  0  0  0  0  0  0
  -26.4270   11.9770   34.6520 C   0  0  0  0  0  0  0  0  0  0  0  0
  -27.1600   12.6010   35.5930 N   0  0  0  0  0  0  0  0  0  0  0  0
  -28.2290   11.7470   35.9290 N   0  0  0  0  0  0  0  0  0  0  0  0
  -28.1340   10.6200   35.1850 C   0  0  0  0  0  0  0  0  0  0  0  0
  -29.1080    9.4650   35.2450 C   0  0  0  0  0  0  0  0  0  0  0  0
  -27.0440   10.8100   34.4230 N   0  0  0  0  0  0  0  0  0  0  0  0
  -26.5120    9.9620   33.5080 C   0  0  0  0  0  0  0  0  0  0  0  0
  -26.3820    8.2430   33.6500 S   0  0  0  0  0  0  0  0  0  0  0  0
  -25.5540    7.9710   32.1440 C   0  0  0  0  0  0  0  0  0  0  0  0
  -25.2010    6.5570   31.7580 C   0  0  0  0  0  0  0  0  0  0  0  0
  -24.6570   13.7460   34.5960 C   0  0  0  0  0  0  0  0  0  0  0  0
  -23.3780   14.1270   33.8760 C   0  0  0  0  0  0  0  0  0  0  0  0
  -22.6570   13.2660   33.3730 O   0  0  0  0  0  0  0  0  0  0  0  0
  -23.0840   15.4270   33.8150 N   0  0  0  0  0  0  0  0  0  0  0  0
  -21.8400   15.8890   33.2270 C   0  0  0  0  0  0  0  0  0  0  0  0
  -22.0650   16.8150   32.0360 C   0  0  0  0  0  0  0  0  0  0  0  0
  -22.7960   16.1080   30.9040 C   0  0  0  0  0  0  0  0  0  0  0  0
  -22.9060   17.0000   29.6690 C   0  0  0  0  0  0  0  0  0  0  0  0
  -23.7880   16.3330   28.6190 C   0  0  0  0  0  0  0  0  0  0  0  0
  -23.9070   17.1250   27.3130 C   0  0  0  0  0  0  0  0  0  0  0  0
  -24.9000   16.4170   26.3960 C   0  0  0  0  0  0  0  0  0  0  0  0
  -24.9440   16.9690   24.9750 C   0  0  0  0  0  0  0  0  0  0  0  0
  -26.0050   16.1880   24.2000 C   0  0  0  0  0  0  0  0  0  0  0  0
  -26.1390   16.6030   22.7340 C   0  0  0  0  0  0  0  0  0  0  0  0
  -25.0310   16.1420   21.9110 N   0  0  0  0  0  0  0  0  0  0  0  0
  -24.9500   14.8820   21.4780 C   0  0  0  0  0  0  0  0  0  0  0  0
  -25.8240   14.0450   21.6860 O   0  0  0  0  0  0  0  0  0  0  0  0
  -23.7140   14.5050   20.6810 C   0  0  0  0  0  0  0  0  0  0  0  0
  -23.1460   13.2400   21.3120 C   0  0  0  0  0  0  0  0  0  0  0  0
  -22.0090   12.6520   20.5620 C   0  0  0  0  0  0  0  0  0  0  0  0
  -21.3730   13.1600   19.4820 N   0  0  0  0  0  0  0  0  0  0  0  0
  -20.3440   12.2520   19.1370 N   0  0  0  0  0  0  0  0  0  0  0  0
  -20.3740   11.2110   20.0050 C   0  0  0  0  0  0  0  0  0  0  0  0
  -19.4360   10.0360   19.9760 C   0  0  0  0  0  0  0  0  0  0  0  0
  -21.3640   11.5120   20.8700 N   0  0  0  0  0  0  0  0  0  0  0  0
  -21.8450   10.7690   21.8990 C   0  0  0  0  0  0  0  0  0  0  0  0
  -22.3730   11.3610   23.1520 C   0  0  0  0  0  0  0  0  0  0  0  0
  -22.9380   10.3150   24.0840 C   0  0  0  0  0  0  0  0  0  0  0  0
  -23.5460   10.5210   25.4540 C   0  0  0  0  0  0  0  0  0  0  0  0
  -22.8210    8.9660   23.4740 C   0  0  0  0  0  0  0  0  0  0  0  0
  -23.2340    7.6130   24.0020 C   0  0  0  0  0  0  0  0  0  0  0  0
  -22.0880    9.0540   21.9040 S   0  0  0  0  0  0  0  0  0  0  0  0
  -22.2880   12.8170   23.4470 C   0  0  0  0  0  0  0  0  0  0  0  0
  -22.6090   13.6800   22.5900 N   0  0  0  0  0  0  0  0  0  0  0  0
  -21.7070   13.2500   24.7590 C   0  0  0  0  0  0  0  0  0  0  0  0
  -20.9790   12.3520   25.5450 C   0  0  0  0  0  0  0  0  0  0  0  0
  -20.4340   12.7250   26.7600 C   0  0  0  0  0  0  0  0  0  0  0  0
  -20.6020   14.0370   27.1540 C   0  0  0  0  0  0  0  0  0  0  0  0
  -19.8840   14.5270   28.7010 Cl  0  0  0  0  0  0  0  0  0  0  0  0
  -21.2930   14.9600   26.3780 C   0  0  0  0  0  0  0  0  0  0  0  0
  -21.8480   14.5720   25.1680 C   0  0  0  0  0  0  0  0  0  0  0  0
  2  1  1  0
  3  2  2  0
  5  2  1  0
  4  3  1  0
  7  4  2  0
  6  5  2  0
  7  6  1  0
  8  7  1  0
  9  8  1  0
 12  8  2  0
 10  9  1  0
 20  9  2  0
 11 10  1  0
 22 10  2  0
 13 12  1  0
 14 13  1  0
 24 13  1  0
 15 14  2  0
 19 14  1  0
 16 15  1  0
 17 16  2  0
 18 17  1  0
 19 17  1  0
 20 19  1  0
 21 20  1  0
 22 21  1  0
 23 22  1  0
 25 24  1  0
 26 25  2  0
 27 25  1  0
 28 27  1  0
 29 28  1  0
 30 29  1  0
 31 30  1  0
 32 31  1  0
 33 32  1  0
 34 33  1  0
 35 34  1  0
 36 35  1  0
 37 36  1  0
 38 37  1  0
 39 38  1  0
 40 39  2  0
 41 39  1  0
 42 41  1  0
 43 42  1  0
 57 42  1  0
 44 43  2  0
 48 43  1  0
 45 44  1  0
 46 45  2  0
 47 46  1  0
 48 46  1  0
 49 48  1  0
 50 49  2  0
 55 49  1  0
 51 50  1  0
 56 50  1  0
 52 51  1  0
 53 51  2  0
 54 53  1  0
 55 53  1  0
 57 56  2  0
 58 56  1  0
 59 58  2  0
 64 58  1  0
 60 59  1  0
 61 60  2  0
 62 61  1  0
 63 61  1  0
 64 63  2  0
A    1
CL1
A    2
C45
A    3
C44
A    4
C43
A    5
C46
A    6
C47
A    7
C42
A    8
C41
A    9
C4
A   10
C2
A   11
C3
A   12
N9
A   13
C9
A   14
C8
A   15
N2
A   16
N1
A   17
C6
A   18
C7
A   19
N
A   20
C5
A   21
S
A   22
C1
A   23
C
A   24
C10
A   25
C11
A   26
O
A   27
N3
A   28
C12
A   29
C13
A   30
C14
A   31
C15
A   32
C16
A   33
C17
A   34
C18
A   35
C19
A   36
C20
A   37
C21
A   38
N4
A   39
C22
A   40
O1
A   41
C23
A   42
C24
A   43
C34
A   44
N8
A   45
N7
A   46
C32
A   47
C33
A   48
N6
A   49
C27
A   50
C26
A   51
C30
A   52
C31
A   53
C28
A   54
C29
A   55
S1
A   56
C25
A   57
N5
A   58
C35
A   59
C40
A   60
C39
A   61
C38
A   62
CL
A   63
C37
A   64
C36
M  END
>  <Id>  (8) 
6DJC_CF6_A_501

>  <ChainId>  (8) 
A

>  <AsymId>  (8) 
C

>  <SeqNum>  (8) 
501

>  <Name>  (8) 
N,N'-(decane-1,10-diyl)bis{2-[(6S)-4-(4-chlorophenyl)-2,3,9-trimethyl-6H-thieno[3,2-f][1,2,4]triazolo[4,3-a][1,4]diazepin-6-yl]acetamide}

>  <SystematicName>  (8) 
2-[(9~{S})-7-(4-chlorophenyl)-4,5,13-trimethyl-3-thia-1,8,11,12-tetrazatricyclo[8.3.0.0^{2,6}]trideca-2(6),4,7,10,12-pentaen-9-yl]-~{N}-[10-[2-[(9~{S})-7-(4-chlorophenyl)-4,5,13-trimethyl-3-thia-1,8,11,12-tetrazatricyclo[8.3.0.0^{2,6}]trideca-2(6),4,7,10,12-pentaen-9-yl]ethanoylamino]decyl]ethanamide

>  <Synonyms>  (8) 


>  <Type>  (8) 
NON-POLYMER

>  <Formula>  (8) 
C48 H54 Cl2 N10 O2 S2

>  <ObservedFormula>  (8) 
C48 S2 Cl2 N10 O2

>  <MolecularWeight>  (8) 
938.044

>  <ModifiedDate>  (8) 
2018-07-20

>  <Parent>  (8) 


>  <OneLetterCode>  (8) 


>  <SubcomponentList>  (8) 


>  <AmbiguousFlag>  (8) 
N

>  <InsertionCode>  (8) 


>  <InstanceId>  (8) 
6DJC_CF6_A_501

>  <ChemCompId>  (8) 
CF6

>  <PdbId>  (8) 
6DJC

>  <ResidueNumber>  (8) 
501

>  <InChI>  (8) 
InChI=1S/C48H54Cl2N10O2S2/c1-27-29(3)63-47-41(27)43(33-15-19-35(49)20-16-33)53-37(45-57-55-31(5)59(45)47)25-39(61)51-23-13-11-9-7-8-10-12-14-24-52-40(62)26-38-46-58-56-32(6)60(46)48-42(28(2)30(4)64-48)44(54-38)34-17-21-36(50)22-18-34/h15-22,37-38H,7-14,23-26H2,1-6H3,(H,51,61)(H,52,62)/t37-,38-/m0/s1

>  <InChIKey>  (8) 
VFGPQYYCEGAFLY-UWXQCODUSA-N

>  <SMILES>  (8) 
Cc1c(sc-2c1C(=N[C@H](c3n2c(nn3)C)CC(=O)NCCCCCCCCCCNC(=O)C[C@H]4c5nnc(n5-c6c(c(c(s6)C)C)C(=N4)c7ccc(cc7)Cl)C)c8ccc(cc8)Cl)C

>  <MissingHeavyAtoms>  (8) 
0

>  <Model>  (8) 
1

>  <AltIds>  (8) 


>  <pKI>  (8) 
7.74

>  <ChemblID>  (8) 
-

>  <standardized_canonical_smiles>  (8) 
Cc1sc2c(c1C)C(c1ccc(Cl)cc1)=N[C@@H](CC(=O)NCCCCCCCCCCNC(=O)C[C@@H]1N=C(c3ccc(Cl)cc3)c3c(sc(C)c3C)-n3c(C)nnc31)c1nnc(C)n1-2

$$$$
5KDH_6RX_A_201
     RDKit          3D

 25 28  0  0  0  0  0  0  0  0999 V2000
    8.5540   -6.4320  -20.6910 C   0  0  0  0  0  0  0  0  0  0  0  0
   10.2490   -5.1040  -18.1760 C   0  0  0  0  0  0  0  0  0  0  0  0
    6.8010   -1.7130  -21.2890 C   0  0  0  0  0  0  0  0  0  0  0  0
    6.2610   -0.4420  -21.3770 C   0  0  0  0  0  0  0  0  0  0  0  0
    7.6900   -2.2100  -24.6930 C   0  0  0  0  0  0  0  0  0  0  0  0
   10.8660   -0.6540  -26.0660 C   0  0  0  0  0  0  0  0  0  0  0  0
    9.8760   -1.1890  -25.1160 C   0  0  0  0  0  0  0  0  0  0  0  0
   10.1230   -1.2090  -23.7360 C   0  0  0  0  0  0  0  0  0  0  0  0
    9.1670   -1.7200  -22.8500 C   0  0  0  0  0  0  0  0  0  0  0  0
    7.9240   -2.2280  -23.3000 C   0  0  0  0  0  0  0  0  0  0  0  0
    6.9450   -2.7650  -22.2990 C   0  0  0  0  0  0  0  0  0  0  0  0
    7.4630   -4.0780  -21.7470 C   0  0  0  0  0  0  0  0  0  0  0  0
    7.6580   -5.2470  -22.5420 C   0  0  0  0  0  0  0  0  0  0  0  0
    8.1810   -6.3770  -21.9930 N   0  0  0  0  0  0  0  0  0  0  0  0
    8.4020   -5.3370  -19.8700 N   0  0  0  0  0  0  0  0  0  0  0  0
    8.7890   -5.4660  -18.4760 C   0  0  0  0  0  0  0  0  0  0  0  0
    9.0410   -7.5190  -20.2810 O   0  0  0  0  0  0  0  0  0  0  0  0
    7.3410   -5.3060  -23.7640 O   0  0  0  0  0  0  0  0  0  0  0  0
    7.8780   -4.1650  -20.3860 C   0  0  0  0  0  0  0  0  0  0  0  0
    7.7240   -3.0560  -19.5890 N   0  0  0  0  0  0  0  0  0  0  0  0
    7.2030   -1.8990  -20.0300 C   0  0  0  0  0  0  0  0  0  0  0  0
    6.9160   -0.7500  -19.2070 C   0  0  0  0  0  0  0  0  0  0  0  0
    6.3980    0.1670  -20.1780 O   0  0  0  0  0  0  0  0  0  0  0  0
    5.7180    0.1320  -22.3650 O   0  0  0  0  0  0  0  0  0  0  0  0
    8.6520   -1.6990  -25.5870 C   0  0  0  0  0  0  0  0  0  0  0  0
 14  1  1  0
 15  1  1  0
 17  1  2  0
 16  2  1  0
  4  3  1  0
 11  3  1  0
 21  3  2  0
 23  4  1  0
 24  4  2  0
 10  5  2  0
 25  5  1  0
  7  6  1  0
  8  7  1  0
 25  7  2  0
  9  8  2  0
 10  9  1  0
 11 10  1  0
 12 11  1  0
 13 12  1  0
 19 12  2  0
 14 13  1  0
 18 13  2  0
 16 15  1  0
 19 15  1  0
 20 19  1  0
 21 20  1  0
 22 21  1  0
 23 22  1  0
A    1
C10
A    2
C13
A    3
C21
A    4
C22
A    5
C24
A    6
C01
A    7
C02
A    8
C03
A    9
C04
A   10
C05
A   11
C06
A   12
C07
A   13
C08
A   14
N09
A   15
N11
A   16
C12
A   17
O14
A   18
O15
A   19
C16
A   20
N17
A   21
C18
A   22
C19
A   23
O20
A   24
O23
A   25
C25
M  END
>  <Id>  (9) 
5KDH_6RX_A_201

>  <ChainId>  (9) 
A

>  <AsymId>  (9) 
B

>  <SeqNum>  (9) 
201

>  <Name>  (9) 
(5~{S})-1-ethyl-5-(4-methylphenyl)-8,9-dihydro-5~{H}-furo[3,4]pyrido[3,5-~{b}]pyrimidine-2,4,6-trione

>  <SystematicName>  (9) 
(5~{S})-1-ethyl-5-(4-methylphenyl)-8,9-dihydro-5~{H}-furo[3,4]pyrido[3,5-~{b}]pyrimidine-2,4,6-trione

>  <Synonyms>  (9) 


>  <Type>  (9) 
NON-POLYMER

>  <Formula>  (9) 
C18 H17 N3 O4

>  <ObservedFormula>  (9) 
C18 N3 O4

>  <MolecularWeight>  (9) 
339.345

>  <ModifiedDate>  (9) 
2017-07-28

>  <Parent>  (9) 


>  <OneLetterCode>  (9) 


>  <SubcomponentList>  (9) 


>  <AmbiguousFlag>  (9) 
N

>  <InsertionCode>  (9) 


>  <InstanceId>  (9) 
5KDH_6RX_A_201

>  <ChemCompId>  (9) 
6RX

>  <PdbId>  (9) 
5KDH

>  <ResidueNumber>  (9) 
201

>  <InChI>  (9) 
InChI=1S/C18H17N3O4/c1-3-21-15-14(16(22)20-18(21)24)12(10-6-4-9(2)5-7-10)13-11(19-15)8-25-17(13)23/h4-7,12,19H,3,8H2,1-2H3,(H,20,22,24)/t12-/m1/s1

>  <InChIKey>  (9) 
MUOCQMZJLRQTRD-GFCCVEGCSA-N

>  <SMILES>  (9) 
CCN1C2=C([C@@H](C3=C(N2)COC3=O)c4ccc(cc4)C)C(=O)NC1=O

>  <MissingHeavyAtoms>  (9) 
0

>  <Model>  (9) 
1

>  <AltIds>  (9) 


>  <pKI>  (9) 
6.43

>  <ChemblID>  (9) 
-

>  <standardized_canonical_smiles>  (9) 
CCn1c2c(c(=O)[nH]c1=O)[C@H](c1ccc(C)cc1)C1=C(COC1=O)N2

$$$$
5UEY_88M_A_501
     RDKit          3D

 32 34  0  0  0  0  0  0  0  0999 V2000
    9.9870   11.2120   20.3230 C   0  0  0  0  0  0  0  0  0  0  0  0
   11.1690   11.1520   21.0280 C   0  0  0  0  0  0  0  0  0  0  0  0
   13.3040   12.7930   22.8720 C   0  0  0  0  0  0  0  0  0  0  0  0
   13.3830   13.0410   24.2270 C   0  0  0  0  0  0  0  0  0  0  0  0
   11.1970   11.6850   18.3230 C   0  0  0  0  0  0  0  0  0  0  0  0
   14.1530   10.8000   24.6030 C   0  0  0  0  0  0  0  0  0  0  0  0
   12.3850   11.6130   19.0230 C   0  0  0  0  0  0  0  0  0  0  0  0
    9.9930   11.4750   18.9690 C   0  0  0  0  0  0  0  0  0  0  0  0
   12.3730   11.3480   20.3790 C   0  0  0  0  0  0  0  0  0  0  0  0
   13.6470   11.5470   22.3880 C   0  0  0  0  0  0  0  0  0  0  0  0
   13.8060   12.0450   25.0820 C   0  0  0  0  0  0  0  0  0  0  0  0
   14.0740   10.5590   23.2480 C   0  0  0  0  0  0  0  0  0  0  0  0
   15.5900   12.9400   17.4690 C   0  0  0  0  0  0  0  0  0  0  0  0
   13.9920   10.6770   17.5850 C   0  0  0  0  0  0  0  0  0  0  0  0
   13.6300   11.7570   18.2780 C   0  0  0  0  0  0  0  0  0  0  0  0
   14.4720   12.9210   18.2120 C   0  0  0  0  0  0  0  0  0  0  0  0
   15.9830   11.7290   16.7110 C   0  0  0  0  0  0  0  0  0  0  0  0
   14.8670   15.6160   20.5010 C   0  0  0  0  0  0  0  0  0  0  0  0
    8.4360    8.4010   17.6750 C   0  0  0  0  0  0  0  0  0  0  0  0
   15.4320    9.4270   16.1090 C   0  0  0  0  0  0  0  0  0  0  0  0
   14.9450   14.1840   20.0330 C   0  0  0  0  0  0  0  0  0  0  0  0
    9.2030    9.3180   16.7520 C   0  0  0  0  0  0  0  0  0  0  0  0
   15.1320   10.6420   16.8250 N   0  0  0  0  0  0  0  0  0  0  0  0
    8.7160   11.5450   18.2950 N   0  0  0  0  0  0  0  0  0  0  0  0
   17.0110   11.7650   16.0480 O   0  0  0  0  0  0  0  0  0  0  0  0
    7.0530   10.7840   16.4870 O   0  0  0  0  0  0  0  0  0  0  0  0
    9.2450   11.7450   15.7630 O   0  0  0  0  0  0  0  0  0  0  0  0
   13.5990   11.2580   21.0320 O   0  0  0  0  0  0  0  0  0  0  0  0
   14.0470   14.0190   18.9380 O   0  0  0  0  0  0  0  0  0  0  0  0
   13.8810   12.2890   26.3990 F   0  0  0  0  0  0  0  0  0  0  0  0
   14.4100    9.3510   22.7680 F   0  0  0  0  0  0  0  0  0  0  0  0
    8.4800   10.9440   16.6980 S   0  0  0  0  0  0  0  0  0  0  0  0
  2  1  2  0
  8  1  1  0
  9  2  1  0
  4  3  2  0
 10  3  1  0
 11  4  1  0
  7  5  1  0
  8  5  2  0
 11  6  2  0
 12  6  1  0
  9  7  2  0
 15  7  1  0
 24  8  1  0
 28  9  1  0
 12 10  2  0
 28 10  1  0
 30 11  1  0
 31 12  1  0
 16 13  2  0
 17 13  1  0
 15 14  2  0
 23 14  1  0
 16 15  1  0
 29 16  1  0
 23 17  1  0
 25 17  2  0
 21 18  1  0
 22 19  1  0
 23 20  1  0
 29 21  1  0
 32 22  1  0
 32 24  1  0
 32 26  1  0
 32 27  1  0
A    1
C1
A    2
C2
A    3
C3
A    4
C4
A    5
C5
A    6
C6
A    7
C7
A    8
C8
A    9
C9
A   10
C10
A   11
C11
A   12
C12
A   13
C13
A   14
C14
A   15
C15
A   16
C16
A   17
C17
A   18
C18
A   19
C19
A   20
C20
A   21
C21
A   22
C22
A   23
N23
A   24
N24
A   25
O25
A   26
O26
A   27
O27
A   28
O28
A   29
O29
A   30
F30
A   31
F31
A   32
S32
M  END
>  <Id>  (10) 
5UEY_88M_A_501

>  <ChainId>  (10) 
A

>  <AsymId>  (10) 
B

>  <SeqNum>  (10) 
501

>  <Name>  (10) 
5-[2-(2,4-difluorophenoxy)-5-{[ethyl(dihydroxy)-lambda~4~-sulfanyl]amino}phenyl]-4-ethoxy-1-methylpyridin-2(1H)-one

>  <SystematicName>  (10) 
5-[2-[2,4-bis(fluoranyl)phenoxy]-5-[[ethyl-bis(oxidanyl)-$l^{4}-sulfanyl]amino]phenyl]-4-ethoxy-1-methyl-pyridin-2-one

>  <Synonyms>  (10) 


>  <Type>  (10) 
NON-POLYMER

>  <Formula>  (10) 
C22 H24 F2 N2 O5 S

>  <ObservedFormula>  (10) 
C22 S F2 N2 O5

>  <MolecularWeight>  (10) 
466.498

>  <ModifiedDate>  (10) 
2017-05-05

>  <Parent>  (10) 


>  <OneLetterCode>  (10) 


>  <SubcomponentList>  (10) 


>  <AmbiguousFlag>  (10) 
N

>  <InsertionCode>  (10) 


>  <InstanceId>  (10) 
5UEY_88M_A_501

>  <ChemCompId>  (10) 
88M

>  <PdbId>  (10) 
5UEY

>  <ResidueNumber>  (10) 
501

>  <InChI>  (10) 
InChI=1S/C22H24F2N2O5S/c1-4-30-21-12-22(27)26(3)13-17(21)16-11-15(25-32(28,29)5-2)7-9-19(16)31-20-8-6-14(23)10-18(20)24/h6-13,25,28-29H,4-5H2,1-3H3

>  <InChIKey>  (10) 
JZIKIYOQVHKWKM-UHFFFAOYSA-N

>  <SMILES>  (10) 
CCOC1=CC(=O)N(C=C1c2cc(ccc2Oc3ccc(cc3F)F)NS(CC)(O)O)C

>  <MissingHeavyAtoms>  (10) 
0

>  <Model>  (10) 
1

>  <AltIds>  (10) 


>  <pKI>  (10) 
8.29

>  <ChemblID>  (10) 
-

>  <standardized_canonical_smiles>  (10) 
CCOc1cc(=O)n(C)cc1-c1cc(NS(O)(O)CC)ccc1Oc1ccc(F)cc1F

$$$$
5UEX_89D_A_501
     RDKit          3D

 34 37  0  0  0  0  0  0  0  0999 V2000
   13.4910   13.6830   24.2620 C   0  0  0  0  0  0  0  0  0  0  0  0
   13.0870   11.3290   24.2570 C   0  0  0  0  0  0  0  0  0  0  0  0
   12.0450   12.1130   18.7650 C   0  0  0  0  0  0  0  0  0  0  0  0
   13.4920   13.7250   22.8780 C   0  0  0  0  0  0  0  0  0  0  0  0
    9.6640   11.8460   18.7590 C   0  0  0  0  0  0  0  0  0  0  0  0
   13.2890   12.5380   22.1840 C   0  0  0  0  0  0  0  0  0  0  0  0
   15.1480   13.3900   17.0330 C   0  0  0  0  0  0  0  0  0  0  0  0
   13.2680   12.1870   17.9760 C   0  0  0  0  0  0  0  0  0  0  0  0
   15.6020   12.1270   16.4070 C   0  0  0  0  0  0  0  0  0  0  0  0
   13.7530   16.1740   20.0570 C   0  0  0  0  0  0  0  0  0  0  0  0
   14.4820   15.1440   19.2210 C   0  0  0  0  0  0  0  0  0  0  0  0
    8.1390    8.9960   16.7620 C   0  0  0  0  0  0  0  0  0  0  0  0
    8.6850   10.1270   15.9230 C   0  0  0  0  0  0  0  0  0  0  0  0
    9.6600   12.0130   20.1250 C   0  0  0  0  0  0  0  0  0  0  0  0
   10.8360   12.2180   20.8130 C   0  0  0  0  0  0  0  0  0  0  0  0
   10.8650   11.8950   18.0800 C   0  0  0  0  0  0  0  0  0  0  0  0
   12.0480   12.2630   20.1420 C   0  0  0  0  0  0  0  0  0  0  0  0
   13.2710   12.5070   24.9400 C   0  0  0  0  0  0  0  0  0  0  0  0
   13.1100   11.3550   22.8810 C   0  0  0  0  0  0  0  0  0  0  0  0
   13.6720   11.0640   17.3850 C   0  0  0  0  0  0  0  0  0  0  0  0
   14.0380   13.3810   17.7830 C   0  0  0  0  0  0  0  0  0  0  0  0
   13.7820   15.0690   22.2680 C   0  0  0  0  0  0  0  0  0  0  0  0
   12.8960   15.5460   21.1390 C   0  0  0  0  0  0  0  0  0  0  0  0
   15.1910    9.7730   16.0050 C   0  0  0  0  0  0  0  0  0  0  0  0
   14.8030   11.0190   16.6170 N   0  0  0  0  0  0  0  0  0  0  0  0
    8.3730   11.6210   18.1590 N   0  0  0  0  0  0  0  0  0  0  0  0
   16.6280   12.1360   15.7470 O   0  0  0  0  0  0  0  0  0  0  0  0
    6.6460   11.6820   16.2620 O   0  0  0  0  0  0  0  0  0  0  0  0
    8.8830   12.7380   15.8410 O   0  0  0  0  0  0  0  0  0  0  0  0
   13.2800   12.4880   20.7900 O   0  0  0  0  0  0  0  0  0  0  0  0
   13.5160   14.5060   18.3970 O   0  0  0  0  0  0  0  0  0  0  0  0
   13.2620   12.5140   26.2810 F   0  0  0  0  0  0  0  0  0  0  0  0
   12.9100   10.2060   22.2260 F   0  0  0  0  0  0  0  0  0  0  0  0
    8.0810   11.7050   16.4670 S   0  0  0  0  0  0  0  0  0  0  0  0
  4  1  2  0
 18  1  1  0
 18  2  2  0
 19  2  1  0
  8  3  1  0
 16  3  1  0
 17  3  2  0
  6  4  1  0
 22  4  1  0
 14  5  1  0
 16  5  2  0
 26  5  1  0
 19  6  2  0
 30  6  1  0
  9  7  1  0
 21  7  2  0
 20  8  2  0
 21  8  1  0
 25  9  1  0
 27  9  2  0
 11 10  1  0
 23 10  1  0
 31 11  1  0
 13 12  1  0
 34 13  1  0
 15 14  2  0
 17 15  1  0
 30 17  1  0
 32 18  1  0
 33 19  1  0
 25 20  1  0
 31 21  1  0
 23 22  1  0
 25 24  1  0
 34 26  1  0
 34 28  1  0
 34 29  1  0
A    1
C4
A    2
C5
A    3
C6
A    4
C7
A    5
C8
A    6
C10
A    7
C13
A    8
C15
A    9
C17
A   10
C20
A   11
C21
A   12
C22
A   13
C24
A   14
C1
A   15
C2
A   16
C3
A   17
C9
A   18
C11
A   19
C12
A   20
C14
A   21
C16
A   22
C18
A   23
C19
A   24
C23
A   25
N25
A   26
N26
A   27
O27
A   28
O28
A   29
O29
A   30
O30
A   31
O31
A   32
F32
A   33
F33
A   34
S34
M  END
>  <Id>  (11) 
5UEX_89D_A_501

>  <ChainId>  (11) 
A

>  <AsymId>  (11) 
B

>  <SeqNum>  (11) 
501

>  <Name>  (11) 
17-{[ethyl(dihydroxy)-lambda~4~-sulfanyl]amino}-11,13-difluoro-2-methyl-6,7,8,9-tetrahydrodibenzo[4,5:7,8][1,6]dioxacyclododecino[3,2-c]pyridin-3(2H)-one

>  <SystematicName>  (11) 
null

>  <Synonyms>  (11) 


>  <Type>  (11) 
NON-POLYMER

>  <Formula>  (11) 
C24 H26 F2 N2 O5 S

>  <ObservedFormula>  (11) 
C24 S F2 N2 O5

>  <MolecularWeight>  (11) 
492.535

>  <ModifiedDate>  (11) 
2017-05-05

>  <Parent>  (11) 


>  <OneLetterCode>  (11) 


>  <SubcomponentList>  (11) 


>  <AmbiguousFlag>  (11) 
N

>  <InsertionCode>  (11) 


>  <InstanceId>  (11) 
5UEX_89D_A_501

>  <ChemCompId>  (11) 
89D

>  <PdbId>  (11) 
5UEX

>  <ResidueNumber>  (11) 
501

>  <InChI>  (11) 
InChI=1S/C24H26F2N2O5S/c1-3-34(30,31)27-17-7-8-21-18(12-17)19-14-28(2)23(29)13-22(19)32-9-5-4-6-15-10-16(25)11-20(26)24(15)33-21/h7-8,10-14,27,30-31H,3-6,9H2,1-2H3

>  <InChIKey>  (11) 
VWDSFGMYIKNVLS-UHFFFAOYSA-N

>  <SMILES>  (11) 
CCS(Nc1ccc2c(c1)C3=CN(C(=O)C=C3OCCCCc4cc(cc(c4O2)F)F)C)(O)O

>  <MissingHeavyAtoms>  (11) 
0

>  <Model>  (11) 
1

>  <AltIds>  (11) 


>  <pKI>  (11) 
8.82

>  <ChemblID>  (11) 
-

>  <standardized_canonical_smiles>  (11) 
CCS(O)(O)Nc1ccc2c(c1)-c1cn(C)c(=O)cc1OCCCCc1cc(F)cc(F)c1O2

$$$$
5UF0_89J_A_501
     RDKit          3D

 16 17  0  0  0  0  0  0  0  0999 V2000
  -15.6340   11.3610    2.6740 C   0  0  0  0  0  0  0  0  0  0  0  0
  -15.7860   13.2590    1.1940 C   0  0  0  0  0  0  0  0  0  0  0  0
  -15.0710   12.1980    1.7310 C   0  0  0  0  0  0  0  0  0  0  0  0
  -11.4610   12.7050    0.8410 C   0  0  0  0  0  0  0  0  0  0  0  0
  -13.7090   11.9320    1.2410 C   0  0  0  0  0  0  0  0  0  0  0  0
  -11.2990   11.5000    0.0010 C   0  0  0  0  0  0  0  0  0  0  0  0
  -17.6410   12.6710    2.5780 C   0  0  0  0  0  0  0  0  0  0  0  0
  -16.9280   11.6090    3.1060 C   0  0  0  0  0  0  0  0  0  0  0  0
  -17.0800   13.4980    1.6250 C   0  0  0  0  0  0  0  0  0  0  0  0
  -12.6230   12.9040    1.4910 C   0  0  0  0  0  0  0  0  0  0  0  0
  -12.2470    9.4050   -0.7680 C   0  0  0  0  0  0  0  0  0  0  0  0
  -11.8290   14.8630    2.7090 C   0  0  0  0  0  0  0  0  0  0  0  0
  -13.5770   10.8770    0.5180 N   0  0  0  0  0  0  0  0  0  0  0  0
  -12.3580   10.6370   -0.0210 N   0  0  0  0  0  0  0  0  0  0  0  0
  -12.8920   13.9650    2.3320 N   0  0  0  0  0  0  0  0  0  0  0  0
  -10.2180   11.2950   -0.5560 O   0  0  0  0  0  0  0  0  0  0  0  0
  3  1  2  0
  8  1  1  0
  3  2  1  0
  9  2  2  0
  5  3  1  0
  6  4  1  0
 10  4  2  0
 10  5  1  0
 13  5  2  0
 14  6  1  0
 16  6  2  0
  8  7  2  0
  9  7  1  0
 15 10  1  0
 14 11  1  0
 15 12  1  0
 14 13  1  0
A    1
C4
A    2
C5
A    3
C6
A    4
C7
A    5
C8
A    6
C10
A    7
C1
A    8
C2
A    9
C3
A   10
C9
A   11
C11
A   12
C12
A   13
N13
A   14
N14
A   15
N15
A   16
O16
M  END
>  <Id>  (12) 
5UF0_89J_A_501

>  <ChainId>  (12) 
A

>  <AsymId>  (12) 
B

>  <SeqNum>  (12) 
501

>  <Name>  (12) 
2-methyl-5-(methylamino)-6-phenylpyridazin-3(2H)-one

>  <SystematicName>  (12) 
2-methyl-5-(methylamino)-6-phenyl-pyridazin-3-one

>  <Synonyms>  (12) 


>  <Type>  (12) 
NON-POLYMER

>  <Formula>  (12) 
C12 H13 N3 O

>  <ObservedFormula>  (12) 
C12 N3 O

>  <MolecularWeight>  (12) 
215.251

>  <ModifiedDate>  (12) 
2017-06-23

>  <Parent>  (12) 


>  <OneLetterCode>  (12) 


>  <SubcomponentList>  (12) 


>  <AmbiguousFlag>  (12) 
N

>  <InsertionCode>  (12) 


>  <InstanceId>  (12) 
5UF0_89J_A_501

>  <ChemCompId>  (12) 
89J

>  <PdbId>  (12) 
5UF0

>  <ResidueNumber>  (12) 
501

>  <InChI>  (12) 
InChI=1S/C12H13N3O/c1-13-10-8-11(16)15(2)14-12(10)9-6-4-3-5-7-9/h3-8,13H,1-2H3

>  <InChIKey>  (12) 
ZRCCUVSDZQJQEX-UHFFFAOYSA-N

>  <SMILES>  (12) 
CNC1=CC(=O)N(N=C1c2ccccc2)C

>  <MissingHeavyAtoms>  (12) 
0

>  <Model>  (12) 
1

>  <AltIds>  (12) 


>  <pKI>  (12) 
3.8

>  <ChemblID>  (12) 
-

>  <standardized_canonical_smiles>  (12) 
CNc1cc(=O)n(C)nc1-c1ccccc1

$$$$
5ULA_5MJ_B_201
     RDKit          3D

 26 28  0  0  0  0  0  0  0  0999 V2000
  -16.0840   25.8710   -7.4350 C   0  0  0  0  0  0  0  0  0  0  0  0
  -16.8060   27.5570   -5.3380 C   0  0  0  0  0  0  0  0  0  0  0  0
  -17.4220   26.0860   -7.1060 C   0  0  0  0  0  0  0  0  0  0  0  0
  -17.8120   26.9280   -6.0860 C   0  0  0  0  0  0  0  0  0  0  0  0
  -15.5360   27.3720   -5.6950 C   0  0  0  0  0  0  0  0  0  0  0  0
  -15.1050   26.4960   -6.7190 C   0  0  0  0  0  0  0  0  0  0  0  0
  -12.0870   18.8690  -16.8390 O   0  0  0  0  0  0  0  0  0  0  0  0
  -12.4100   19.7160  -15.9710 C   0  0  0  0  0  0  0  0  0  0  0  0
  -11.5190   20.8520  -15.5310 C   0  0  0  0  0  0  0  0  0  0  0  0
  -12.2590   21.5030  -14.3280 C   0  0  0  0  0  0  0  0  0  0  0  0
  -13.5150   20.7380  -14.2600 C   0  0  0  0  0  0  0  0  0  0  0  0
  -13.6120   19.7050  -15.1340 C   0  0  0  0  0  0  0  0  0  0  0  0
  -14.7010   18.7120  -15.3500 C   0  0  0  0  0  0  0  0  0  0  0  0
  -14.5010   20.9990  -13.3730 N   0  0  0  0  0  0  0  0  0  0  0  0
  -14.4970   21.8520  -12.2760 C   0  0  0  0  0  0  0  0  0  0  0  0
  -13.4520   21.8640  -11.3630 C   0  0  0  0  0  0  0  0  0  0  0  0
  -13.5410   22.7520  -10.2790 C   0  0  0  0  0  0  0  0  0  0  0  0
  -15.5430   22.7350  -12.1070 C   0  0  0  0  0  0  0  0  0  0  0  0
  -16.8720   22.7920  -13.3110 Cl  0  0  0  0  0  0  0  0  0  0  0  0
  -15.6640   23.6880  -11.0110 C   0  0  0  0  0  0  0  0  0  0  0  0
  -14.6260   23.6240  -10.1000 C   0  0  0  0  0  0  0  0  0  0  0  0
  -14.6340   24.5290   -8.8830 C   0  0  0  0  0  0  0  0  0  0  0  0
  -13.5470   24.7670   -8.3160 O   0  0  0  0  0  0  0  0  0  0  0  0
  -15.8490   25.0000   -8.4890 N   0  0  0  0  0  0  0  0  0  0  0  0
  -17.1240   28.4450   -4.2790 O   0  0  0  0  0  0  0  0  0  0  0  0
  -18.4880   28.7240   -3.9510 C   0  0  0  0  0  0  0  0  0  0  0  0
  3  1  2  0
  6  1  1  0
 24  1  1  0
  4  2  2  0
  5  2  1  0
 25  2  1  0
  4  3  1  0
  6  5  2  0
  8  7  2  0
  9  8  1  0
 12  8  1  0
 10  9  1  0
 11 10  1  0
 12 11  2  0
 14 11  1  0
 13 12  1  0
 15 14  1  0
 16 15  2  0
 18 15  1  0
 17 16  1  0
 21 17  2  0
 19 18  1  0
 20 18  2  0
 21 20  1  0
 22 21  1  0
 23 22  2  0
 24 22  1  0
 26 25  1  0
A    1
C3
A    2
C4
A    3
C5
A    4
C6
A    5
C2
A    6
C1
A    7
O26
A    8
C19
A    9
C21
A   10
C23
A   11
C22
A   12
C20
A   13
C25
A   14
N18
A   15
C15
A   16
C13
A   17
C11
A   18
C14
A   19
CL
A   20
C12
A   21
C10
A   22
C8
A   23
O9
A   24
N7
A   25
O16
A   26
C17
M  END
>  <Id>  (13) 
5ULA_5MJ_B_201

>  <ChainId>  (13) 
B

>  <AsymId>  (13) 
D

>  <SeqNum>  (13) 
201

>  <Name>  (13) 
3-chloranyl-~{N}-(4-methoxyphenyl)-4-[(2-methyl-3-oxidanylidene-cyclopenten-1-yl)amino]benzamide

>  <SystematicName>  (13) 
3-chloranyl-~{N}-(4-methoxyphenyl)-4-[(2-methyl-3-oxidanylidene-cyclopenten-1-yl)amino]benzamide

>  <Synonyms>  (13) 


>  <Type>  (13) 
NON-POLYMER

>  <Formula>  (13) 
C20 H19 Cl N2 O3

>  <ObservedFormula>  (13) 
C20 Cl N2 O3

>  <MolecularWeight>  (13) 
370.829

>  <ModifiedDate>  (13) 
2017-03-17

>  <Parent>  (13) 


>  <OneLetterCode>  (13) 


>  <SubcomponentList>  (13) 


>  <AmbiguousFlag>  (13) 
N

>  <InsertionCode>  (13) 


>  <InstanceId>  (13) 
5ULA_5MJ_B_201

>  <ChemCompId>  (13) 
5MJ

>  <PdbId>  (13) 
5ULA

>  <ResidueNumber>  (13) 
201

>  <InChI>  (13) 
InChI=1S/C20H19ClN2O3/c1-12-17(9-10-19(12)24)23-18-8-3-13(11-16(18)21)20(25)22-14-4-6-15(26-2)7-5-14/h3-8,11,23H,9-10H2,1-2H3,(H,22,25)

>  <InChIKey>  (13) 
VZTVTSICPINUNG-UHFFFAOYSA-N

>  <SMILES>  (13) 
CC1=C(CCC1=O)Nc2ccc(cc2Cl)C(=O)Nc3ccc(cc3)OC

>  <MissingHeavyAtoms>  (13) 
0

>  <Model>  (13) 
1

>  <AltIds>  (13) 


>  <pKI>  (13) 
7.11

>  <ChemblID>  (13) 
-

>  <standardized_canonical_smiles>  (13) 
COc1ccc(NC(=O)c2ccc(NC3=C(C)C(=O)CC3)c(Cl)c2)cc1

$$$$
5UEZ_89G_A_501
     RDKit          3D

 23 25  0  0  0  0  0  0  0  0999 V2000
   13.3430   12.4340   -7.2470 C   0  0  0  0  0  0  0  0  0  0  0  0
   17.3580   12.3150   -3.3740 C   0  0  0  0  0  0  0  0  0  0  0  0
   16.0130   12.5990   -1.4030 C   0  0  0  0  0  0  0  0  0  0  0  0
   13.2940    9.9820   -5.9760 C   0  0  0  0  0  0  0  0  0  0  0  0
   13.6970   12.3510   -5.9160 C   0  0  0  0  0  0  0  0  0  0  0  0
   14.9640   12.0020   -2.0720 C   0  0  0  0  0  0  0  0  0  0  0  0
   11.4850   12.6860   -0.8930 C   0  0  0  0  0  0  0  0  0  0  0  0
   12.6270   12.8060   -1.6080 C   0  0  0  0  0  0  0  0  0  0  0  0
   12.2900    9.4930    0.9620 C   0  0  0  0  0  0  0  0  0  0  0  0
   12.9510   11.3000   -7.9310 C   0  0  0  0  0  0  0  0  0  0  0  0
   17.2140   12.7670   -2.0750 C   0  0  0  0  0  0  0  0  0  0  0  0
   12.9130   10.0740   -7.2970 C   0  0  0  0  0  0  0  0  0  0  0  0
   16.3140   11.7000   -4.0370 C   0  0  0  0  0  0  0  0  0  0  0  0
   13.6890   11.1160   -5.2940 C   0  0  0  0  0  0  0  0  0  0  0  0
   15.1030   11.5590   -3.3740 C   0  0  0  0  0  0  0  0  0  0  0  0
   13.6810   11.8090   -1.3530 C   0  0  0  0  0  0  0  0  0  0  0  0
   11.3320   11.5290    0.0410 C   0  0  0  0  0  0  0  0  0  0  0  0
   11.7330   14.5120   -2.8750 C   0  0  0  0  0  0  0  0  0  0  0  0
   13.5680   10.7990   -0.5550 N   0  0  0  0  0  0  0  0  0  0  0  0
   12.3860   10.6510    0.0950 N   0  0  0  0  0  0  0  0  0  0  0  0
   10.2940   11.3900    0.6930 O   0  0  0  0  0  0  0  0  0  0  0  0
   14.0020   10.9420   -3.9550 O   0  0  0  0  0  0  0  0  0  0  0  0
   12.9280   13.8120   -2.5250 O   0  0  0  0  0  0  0  0  0  0  0  0
  5  1  2  0
 10  1  1  0
 11  2  2  0
 13  2  1  0
  6  3  2  0
 11  3  1  0
 12  4  1  0
 14  4  2  0
 14  5  1  0
 15  6  1  0
 16  6  1  0
  8  7  2  0
 17  7  1  0
 16  8  1  0
 23  8  1  0
 20  9  1  0
 12 10  2  0
 15 13  2  0
 22 14  1  0
 22 15  1  0
 19 16  2  0
 20 17  1  0
 21 17  2  0
 23 18  1  0
 20 19  1  0
A    1
C4
A    2
C5
A    3
C6
A    4
C7
A    5
C8
A    6
C10
A    7
C13
A    8
C15
A    9
C17
A   10
C1
A   11
C2
A   12
C3
A   13
C9
A   14
C11
A   15
C12
A   16
C14
A   17
C16
A   18
C18
A   19
N19
A   20
N20
A   21
O21
A   22
O22
A   23
O23
M  END
>  <Id>  (14) 
5UEZ_89G_A_501

>  <ChainId>  (14) 
A

>  <AsymId>  (14) 
B

>  <SeqNum>  (14) 
501

>  <Name>  (14) 
5-methoxy-2-methyl-6-(2-phenoxyphenyl)pyridazin-3(2H)-one

>  <SystematicName>  (14) 
5-methoxy-2-methyl-6-(2-phenoxyphenyl)pyridazin-3-one

>  <Synonyms>  (14) 


>  <Type>  (14) 
NON-POLYMER

>  <Formula>  (14) 
C18 H16 N2 O3

>  <ObservedFormula>  (14) 
C18 N2 O3

>  <MolecularWeight>  (14) 
308.331

>  <ModifiedDate>  (14) 
2017-05-05

>  <Parent>  (14) 


>  <OneLetterCode>  (14) 


>  <SubcomponentList>  (14) 


>  <AmbiguousFlag>  (14) 
N

>  <InsertionCode>  (14) 


>  <InstanceId>  (14) 
5UEZ_89G_A_501

>  <ChemCompId>  (14) 
89G

>  <PdbId>  (14) 
5UEZ

>  <ResidueNumber>  (14) 
501

>  <InChI>  (14) 
InChI=1S/C18H16N2O3/c1-20-17(21)12-16(22-2)18(19-20)14-10-6-7-11-15(14)23-13-8-4-3-5-9-13/h3-12H,1-2H3

>  <InChIKey>  (14) 
MDTCYTNEBYQKFC-UHFFFAOYSA-N

>  <SMILES>  (14) 
CN1C(=O)C=C(C(=N1)c2ccccc2Oc3ccccc3)OC

>  <MissingHeavyAtoms>  (14) 
0

>  <Model>  (14) 
1

>  <AltIds>  (14) 


>  <pKI>  (14) 
6.01

>  <ChemblID>  (14) 
-

>  <standardized_canonical_smiles>  (14) 
COc1cc(=O)n(C)nc1-c1ccccc1Oc1ccccc1

$$$$
5KHM_XNH_A_201
     RDKit          3D

 35 39  0  0  0  0  0  0  0  0999 V2000
   61.8980   50.8730  126.2360 C   0  0  0  0  0  0  0  0  0  0  0  0
   62.9320   49.0800  126.8020 C   0  0  0  0  0  0  0  0  0  0  0  0
   63.6120   48.2470  127.7220 C   0  0  0  0  0  0  0  0  0  0  0  0
   62.3040   50.7080  142.5890 N   0  0  0  0  0  0  0  0  0  0  0  0
   61.9660   51.2460  132.3270 C   0  0  0  0  0  0  0  0  0  0  0  0
   62.8820   50.7530  133.4320 C   0  0  0  0  0  0  0  0  0  0  0  0
   63.7520   49.6240  132.8860 C   0  0  0  0  0  0  0  0  0  0  0  0
   64.5250   50.0710  131.6410 C   0  0  0  0  0  0  0  0  0  0  0  0
   62.1640   50.4430  134.7270 C   0  0  0  0  0  0  0  0  0  0  0  0
   61.8590   51.4610  135.6200 C   0  0  0  0  0  0  0  0  0  0  0  0
   61.2100   51.2000  136.8100 C   0  0  0  0  0  0  0  0  0  0  0  0
   60.8800   49.9020  137.1380 C   0  0  0  0  0  0  0  0  0  0  0  0
   59.8340   48.5750  138.8490 C   0  0  0  0  0  0  0  0  0  0  0  0
   59.2770   48.8550  140.2110 C   0  0  0  0  0  0  0  0  0  0  0  0
   63.4330   51.4120  143.1950 C   0  0  0  0  0  0  0  0  0  0  0  0
   62.1830   49.3820  142.7440 C   0  0  0  0  0  0  0  0  0  0  0  0
   61.0040   48.6680  142.1150 C   0  0  0  0  0  0  0  0  0  0  0  0
   60.0450   48.2260  143.2120 C   0  0  0  0  0  0  0  0  0  0  0  0
   61.8220   49.1410  135.0760 C   0  0  0  0  0  0  0  0  0  0  0  0
   62.9390   48.7290  143.4340 O   0  0  0  0  0  0  0  0  0  0  0  0
   61.3490   51.5460  141.8620 C   0  0  0  0  0  0  0  0  0  0  0  0
   60.0880   50.8260  141.4110 C   0  0  0  0  0  0  0  0  0  0  0  0
   60.3640   49.4310  141.0280 N   0  0  0  0  0  0  0  0  0  0  0  0
   60.2480   49.8460  138.3470 O   0  0  0  0  0  0  0  0  0  0  0  0
   61.1560   48.8720  136.2540 C   0  0  0  0  0  0  0  0  0  0  0  0
   62.7770   51.6940  131.1190 C   0  0  0  0  0  0  0  0  0  0  0  0
   63.6320   50.6110  130.6050 N   0  0  0  0  0  0  0  0  0  0  0  0
   63.4390   50.0410  129.3340 C   0  0  0  0  0  0  0  0  0  0  0  0
   63.8670   48.7290  128.9670 C   0  0  0  0  0  0  0  0  0  0  0  0
   62.8290   50.8670  128.5360 N   0  0  0  0  0  0  0  0  0  0  0  0
   62.5860   50.3420  127.2560 N   0  0  0  0  0  0  0  0  0  0  0  0
   62.5080   48.9180  125.5620 N   0  0  0  0  0  0  0  0  0  0  0  0
   61.8400   50.0980  125.1900 N   0  0  0  0  0  0  0  0  0  0  0  0
   61.4000   52.1000  126.3700 O   0  0  0  0  0  0  0  0  0  0  0  0
   60.4090   52.4990  125.3910 C   0  0  0  0  0  0  0  0  0  0  0  0
 31  1  1  0
 33  1  2  0
 34  1  1  0
  3  2  1  0
 31  2  1  0
 32  2  2  0
 29  3  2  0
 15  4  1  0
 16  4  1  0
 21  4  1  0
  6  5  1  0
 26  5  1  0
  7  6  1  0
  9  6  1  0
  8  7  1  0
 27  8  1  0
 10  9  2  0
 19  9  1  0
 11 10  1  0
 12 11  2  0
 24 12  1  0
 25 12  1  0
 14 13  1  0
 24 13  1  0
 23 14  1  0
 17 16  1  0
 20 16  2  0
 18 17  1  0
 23 17  1  0
 25 19  2  0
 22 21  1  0
 23 22  1  0
 27 26  1  0
 28 27  1  0
 29 28  1  0
 30 28  2  0
 31 30  1  0
 33 32  1  0
 35 34  1  0
A    1
C1
A    2
C2
A    3
C3
A    4
N6
A    5
C7
A    6
C8
A    7
C9
A    8
C10
A    9
C11
A   10
C12
A   11
C13
A   12
C14
A   13
C15
A   14
C16
A   15
C19
A   16
C20
A   17
C21
A   18
C22
A   19
C24
A   20
O2
A   21
C18
A   22
C17
A   23
N5
A   24
O1
A   25
C23
A   26
C6
A   27
N4
A   28
C5
A   29
C4
A   30
N2
A   31
N3
A   32
N1
A   33
N
A   34
O
A   35
C
M  END
>  <Id>  (15) 
5KHM_XNH_A_201

>  <ChainId>  (15) 
A

>  <AsymId>  (15) 
C

>  <SeqNum>  (15) 
201

>  <Name>  (15) 
(3~{R})-4-[2-[4-[1-(3-methoxy-[1,2,4]triazolo[4,3-b]pyridazin-6-yl)piperidin-4-yl]phenoxy]ethyl]-1,3-dimethyl-piperazin-2-one

>  <SystematicName>  (15) 
(3~{R})-4-[2-[4-[1-(3-methoxy-[1,2,4]triazolo[4,3-b]pyridazin-6-yl)piperidin-4-yl]phenoxy]ethyl]-1,3-dimethyl-piperazin-2-one

>  <Synonyms>  (15) 


>  <Type>  (15) 
NON-POLYMER

>  <Formula>  (15) 
C25 H33 N7 O3

>  <ObservedFormula>  (15) 
C25 N7 O3

>  <MolecularWeight>  (15) 
479.575

>  <ModifiedDate>  (15) 
2016-09-16

>  <Parent>  (15) 


>  <OneLetterCode>  (15) 


>  <SubcomponentList>  (15) 


>  <AmbiguousFlag>  (15) 
N

>  <InsertionCode>  (15) 


>  <InstanceId>  (15) 
5KHM_XNH_A_201

>  <ChemCompId>  (15) 
XNH

>  <PdbId>  (15) 
5KHM

>  <ResidueNumber>  (15) 
201

>  <InChI>  (15) 
InChI=1S/C25H33N7O3/c1-18-24(33)29(2)14-15-30(18)16-17-35-21-6-4-19(5-7-21)20-10-12-31(13-11-20)23-9-8-22-26-27-25(34-3)32(22)28-23/h4-9,18,20H,10-17H2,1-3H3/t18-/m1/s1

>  <InChIKey>  (15) 
RSMYFSPOTCDHHJ-GOSISDBHSA-N

>  <SMILES>  (15) 
C[C@@H]1C(=O)N(CCN1CCOc2ccc(cc2)C3CCN(CC3)c4ccc5nnc(n5n4)OC)C

>  <MissingHeavyAtoms>  (15) 
0

>  <Model>  (15) 
1

>  <AltIds>  (15) 


>  <pKI>  (15) 
8.3

>  <ChemblID>  (15) 
-

>  <standardized_canonical_smiles>  (15) 
COc1nnc2ccc(N3CCC(c4ccc(OCCN5CCN(C)C(=O)[C@H]5C)cc4)CC3)nn12

$$$$
6DUV_0S6_B_501
     RDKit          3D

 28 31  0  0  0  0  0  0  0  0999 V2000
  -35.5660  -16.5200   12.8200 Cl  0  0  0  0  0  0  0  0  0  0  0  0
  -34.6490  -16.3040   11.3060 C   0  0  0  0  0  0  0  0  0  0  0  0
  -35.2020  -16.8310   10.1550 C   0  0  0  0  0  0  0  0  0  0  0  0
  -34.5110  -16.6730    8.9630 C   0  0  0  0  0  0  0  0  0  0  0  0
  -33.4380  -15.6230   11.3090 C   0  0  0  0  0  0  0  0  0  0  0  0
  -32.7540  -15.4640   10.1190 C   0  0  0  0  0  0  0  0  0  0  0  0
  -33.3040  -16.0000    8.9530 C   0  0  0  0  0  0  0  0  0  0  0  0
  -32.5760  -15.8240    7.6590 C   0  0  0  0  0  0  0  0  0  0  0  0
  -31.0930  -15.7880    7.7050 C   0  0  0  0  0  0  0  0  0  0  0  0
  -30.2460  -16.7520    8.5160 C   0  0  0  0  0  0  0  0  0  0  0  0
  -30.7330  -17.9350    9.3170 C   0  0  0  0  0  0  0  0  0  0  0  0
  -28.8140  -16.3720    8.3870 C   0  0  0  0  0  0  0  0  0  0  0  0
  -27.5540  -16.9720    8.9570 C   0  0  0  0  0  0  0  0  0  0  0  0
  -28.6310  -14.9630    7.3720 S   0  0  0  0  0  0  0  0  0  0  0  0
  -30.3000  -14.7190    7.0440 C   0  0  0  0  0  0  0  0  0  0  0  0
  -30.8460  -13.7720    6.2290 N   0  0  0  0  0  0  0  0  0  0  0  0
  -30.4450  -12.4930    6.0610 C   0  0  0  0  0  0  0  0  0  0  0  0
  -29.3380  -11.7280    6.7490 C   0  0  0  0  0  0  0  0  0  0  0  0
  -31.2840  -11.9810    5.1220 N   0  0  0  0  0  0  0  0  0  0  0  0
  -32.1860  -13.0050    4.7300 N   0  0  0  0  0  0  0  0  0  0  0  0
  -31.8640  -14.1200    5.4370 C   0  0  0  0  0  0  0  0  0  0  0  0
  -33.2420  -15.6440    6.6030 N   0  0  0  0  0  0  0  0  0  0  0  0
  -32.5200  -15.4480    5.3630 C   0  0  0  0  0  0  0  0  0  0  0  0
  -33.5860  -15.4480    4.2730 C   0  0  0  0  0  0  0  0  0  0  0  0
  -34.2480  -16.8110    4.2270 C   0  0  0  0  0  0  0  0  0  0  0  0
  -35.3270  -16.9840    3.6850 O   0  0  0  0  0  0  0  0  0  0  0  0
  -33.5820  -17.9510    4.8070 O   0  0  0  0  0  0  0  0  0  0  0  0
  -34.3610  -19.0870    5.2070 C   0  0  0  0  0  0  0  0  0  0  0  0
  2  1  1  0
  3  2  2  0
  5  2  1  0
  4  3  1  0
  7  4  2  0
  6  5  2  0
  7  6  1  0
  8  7  1  0
  9  8  1  0
 22  8  2  0
 10  9  1  0
 15  9  2  0
 11 10  1  0
 12 10  2  0
 13 12  1  0
 14 12  1  0
 15 14  1  0
 16 15  1  0
 17 16  1  0
 21 16  1  0
 18 17  1  0
 19 17  2  0
 20 19  1  0
 21 20  2  0
 23 21  1  0
 23 22  1  0
 24 23  1  0
 25 24  1  0
 26 25  2  0
 27 25  1  0
 28 27  1  0
A    1
CL1
A    2
C15
A    3
C16
A    4
C17
A    5
C13
A    6
C14
A    7
C12
A    8
C8
A    9
C5
A   10
C4
A   11
C7
A   12
C2
A   13
C6
A   14
S1
A   15
C3
A   16
N9
A   17
C11
A   18
C28
A   19
N27
A   20
N21
A   21
C19
A   22
N10
A   23
C20
A   24
C22
A   25
C23
A   26
O24
A   27
O25
A   28
C26
M  END
>  <Id>  (16) 
6DUV_0S6_B_501

>  <ChainId>  (16) 
B

>  <AsymId>  (16) 
G

>  <SeqNum>  (16) 
501

>  <Name>  (16) 
methyl [(6S)-4-(4-chlorophenyl)-2,3,9-trimethyl-6H-thieno[3,2-f][1,2,4]triazolo[4,3-a][1,4]diazepin-6-yl]acetate

>  <SystematicName>  (16) 
null

>  <Synonyms>  (16) 


>  <Type>  (16) 
NON-POLYMER

>  <Formula>  (16) 
C20 H19 Cl N4 O2 S

>  <ObservedFormula>  (16) 
C20 S Cl N4 O2

>  <MolecularWeight>  (16) 
414.908

>  <ModifiedDate>  (16) 
2012-09-07

>  <Parent>  (16) 


>  <OneLetterCode>  (16) 


>  <SubcomponentList>  (16) 


>  <AmbiguousFlag>  (16) 
N

>  <InsertionCode>  (16) 


>  <InstanceId>  (16) 
6DUV_0S6_B_501

>  <ChemCompId>  (16) 
0S6

>  <PdbId>  (16) 
6DUV

>  <ResidueNumber>  (16) 
501

>  <InChI>  (16) 
InChI=1S/C20H19ClN4O2S/c1-10-11(2)28-20-17(10)18(13-5-7-14(21)8-6-13)22-15(9-16(26)27-4)19-24-23-12(3)25(19)20/h5-8,15H,9H2,1-4H3/t15-/m0/s1

>  <InChIKey>  (16) 
GGRCIHACOIMRKY-HNNXBMFYSA-N

>  <SMILES>  (16) 
Cc1c(sc-2c1C(=N[C@H](c3n2c(nn3)C)CC(=O)OC)c4ccc(cc4)Cl)C

>  <MissingHeavyAtoms>  (16) 
0

>  <Model>  (16) 
1

>  <AltIds>  (16) 


>  <pKI>  (16) 
7.77

>  <ChemblID>  (16) 
-

>  <standardized_canonical_smiles>  (16) 
COC(=O)C[C@@H]1N=C(c2ccc(Cl)cc2)c2c(sc(C)c2C)-n2c(C)nnc21

$$$$
5UEU_0S6_B_501
     RDKit          3D

 28 31  0  0  0  0  0  0  0  0999 V2000
   33.1620  -20.9000  -14.1460 Cl  0  0  0  0  0  0  0  0  0  0  0  0
   32.0690  -21.6840  -13.0810 C   0  0  0  0  0  0  0  0  0  0  0  0
   32.5130  -22.4640  -12.0320 C   0  0  0  0  0  0  0  0  0  0  0  0
   31.5970  -23.0580  -11.1870 C   0  0  0  0  0  0  0  0  0  0  0  0
   30.7270  -21.5030  -13.3050 C   0  0  0  0  0  0  0  0  0  0  0  0
   29.8230  -22.1040  -12.4670 C   0  0  0  0  0  0  0  0  0  0  0  0
   30.2440  -22.8850  -11.4050 C   0  0  0  0  0  0  0  0  0  0  0  0
   29.2320  -23.4740  -10.5160 C   0  0  0  0  0  0  0  0  0  0  0  0
   27.9850  -23.9120  -11.0780 C   0  0  0  0  0  0  0  0  0  0  0  0
   27.8210  -24.7480  -12.2180 C   0  0  0  0  0  0  0  0  0  0  0  0
   28.9290  -25.3880  -12.9480 C   0  0  0  0  0  0  0  0  0  0  0  0
   26.4950  -24.9410  -12.5430 C   0  0  0  0  0  0  0  0  0  0  0  0
   25.9040  -25.7280  -13.6390 C   0  0  0  0  0  0  0  0  0  0  0  0
   25.4580  -24.0970  -11.4740 S   0  0  0  0  0  0  0  0  0  0  0  0
   26.7740  -23.4770  -10.5790 C   0  0  0  0  0  0  0  0  0  0  0  0
   26.5740  -22.6990   -9.4400 N   0  0  0  0  0  0  0  0  0  0  0  0
   25.6410  -21.7450   -9.1210 C   0  0  0  0  0  0  0  0  0  0  0  0
   24.6170  -21.2390  -10.0520 C   0  0  0  0  0  0  0  0  0  0  0  0
   25.8040  -21.3330   -7.8840 N   0  0  0  0  0  0  0  0  0  0  0  0
   26.8660  -22.0140   -7.3560 N   0  0  0  0  0  0  0  0  0  0  0  0
   27.3170  -22.8250   -8.2890 C   0  0  0  0  0  0  0  0  0  0  0  0
   29.4270  -23.3220   -9.2490 N   0  0  0  0  0  0  0  0  0  0  0  0
   28.4700  -23.7550   -8.2280 C   0  0  0  0  0  0  0  0  0  0  0  0
   29.2220  -23.7190   -6.9160 C   0  0  0  0  0  0  0  0  0  0  0  0
   30.2620  -24.8040   -6.8750 C   0  0  0  0  0  0  0  0  0  0  0  0
   30.4460  -25.6460   -7.7420 O   0  0  0  0  0  0  0  0  0  0  0  0
   30.9730  -24.7180   -5.7160 O   0  0  0  0  0  0  0  0  0  0  0  0
   32.3370  -25.0930   -5.8980 C   0  0  0  0  0  0  0  0  0  0  0  0
  2  1  1  0
  3  2  2  0
  5  2  1  0
  4  3  1  0
  7  4  2  0
  6  5  2  0
  7  6  1  0
  8  7  1  0
  9  8  1  0
 22  8  2  0
 10  9  1  0
 15  9  2  0
 11 10  1  0
 12 10  2  0
 13 12  1  0
 14 12  1  0
 15 14  1  0
 16 15  1  0
 17 16  1  0
 21 16  1  0
 18 17  1  0
 19 17  2  0
 20 19  1  0
 21 20  2  0
 23 21  1  0
 23 22  1  0
 24 23  1  0
 25 24  1  0
 26 25  2  0
 27 25  1  0
 28 27  1  0
A    1
CL1
A    2
C15
A    3
C16
A    4
C17
A    5
C13
A    6
C14
A    7
C12
A    8
C8
A    9
C5
A   10
C4
A   11
C7
A   12
C2
A   13
C6
A   14
S1
A   15
C3
A   16
N9
A   17
C11
A   18
C28
A   19
N27
A   20
N21
A   21
C19
A   22
N10
A   23
C20
A   24
C22
A   25
C23
A   26
O24
A   27
O25
A   28
C26
M  END
>  <Id>  (17) 
5UEU_0S6_B_501

>  <ChainId>  (17) 
B

>  <AsymId>  (17) 
D

>  <SeqNum>  (17) 
501

>  <Name>  (17) 
methyl [(6S)-4-(4-chlorophenyl)-2,3,9-trimethyl-6H-thieno[3,2-f][1,2,4]triazolo[4,3-a][1,4]diazepin-6-yl]acetate

>  <SystematicName>  (17) 
null

>  <Synonyms>  (17) 


>  <Type>  (17) 
NON-POLYMER

>  <Formula>  (17) 
C20 H19 Cl N4 O2 S

>  <ObservedFormula>  (17) 
C20 S Cl N4 O2

>  <MolecularWeight>  (17) 
414.908

>  <ModifiedDate>  (17) 
2012-09-07

>  <Parent>  (17) 


>  <OneLetterCode>  (17) 


>  <SubcomponentList>  (17) 


>  <AmbiguousFlag>  (17) 
N

>  <InsertionCode>  (17) 


>  <InstanceId>  (17) 
5UEU_0S6_B_501

>  <ChemCompId>  (17) 
0S6

>  <PdbId>  (17) 
5UEU

>  <ResidueNumber>  (17) 
501

>  <InChI>  (17) 
InChI=1S/C20H19ClN4O2S/c1-10-11(2)28-20-17(10)18(13-5-7-14(21)8-6-13)22-15(9-16(26)27-4)19-24-23-12(3)25(19)20/h5-8,15H,9H2,1-4H3/t15-/m0/s1

>  <InChIKey>  (17) 
GGRCIHACOIMRKY-HNNXBMFYSA-N

>  <SMILES>  (17) 
Cc1c(sc-2c1C(=N[C@H](c3n2c(nn3)C)CC(=O)OC)c4ccc(cc4)Cl)C

>  <MissingHeavyAtoms>  (17) 
0

>  <Model>  (17) 
1

>  <AltIds>  (17) 


>  <pKI>  (17) 
7.77

>  <ChemblID>  (17) 
-

>  <standardized_canonical_smiles>  (17) 
COC(=O)C[C@@H]1N=C(c2ccc(Cl)cc2)c2c(sc(C)c2C)-n2c(C)nnc21

$$$$
4F3I_0S6_A_203
     RDKit          3D

 28 31  0  0  0  0  0  0  0  0999 V2000
   30.0780   48.6070   -6.8350 Cl  0  0  0  0  0  0  0  0  0  0  0  0
   29.0620   49.3100   -5.5850 C   0  0  0  0  0  0  0  0  0  0  0  0
   29.2980   48.9730   -4.2560 C   0  0  0  0  0  0  0  0  0  0  0  0
   28.4950   49.5700   -3.2990 C   0  0  0  0  0  0  0  0  0  0  0  0
   28.0650   50.1620   -5.9820 C   0  0  0  0  0  0  0  0  0  0  0  0
   27.2380   50.7460   -4.9910 C   0  0  0  0  0  0  0  0  0  0  0  0
   27.4570   50.4280   -3.6580 C   0  0  0  0  0  0  0  0  0  0  0  0
   26.5330   50.9910   -2.6140 C   0  0  0  0  0  0  0  0  0  0  0  0
   27.0840   51.0760   -1.2410 C   0  0  0  0  0  0  0  0  0  0  0  0
   28.3570   51.6390   -0.9240 C   0  0  0  0  0  0  0  0  0  0  0  0
   29.2960   52.3370   -1.8280 C   0  0  0  0  0  0  0  0  0  0  0  0
   28.6690   51.5130    0.4560 C   0  0  0  0  0  0  0  0  0  0  0  0
   29.9260   51.8780    1.2240 C   0  0  0  0  0  0  0  0  0  0  0  0
   27.3520   50.7640    1.3280 S   0  0  0  0  0  0  0  0  0  0  0  0
   26.5040   50.5950   -0.1490 C   0  0  0  0  0  0  0  0  0  0  0  0
   25.1640   50.0220   -0.1550 N   0  0  0  0  0  0  0  0  0  0  0  0
   24.6130   48.9560    0.6150 C   0  0  0  0  0  0  0  0  0  0  0  0
   25.3670   48.1070    1.5930 C   0  0  0  0  0  0  0  0  0  0  0  0
   23.2960   48.8830    0.3010 N   0  0  0  0  0  0  0  0  0  0  0  0
   22.9960   49.8580   -0.6460 N   0  0  0  0  0  0  0  0  0  0  0  0
   24.1120   50.5510   -0.8840 C   0  0  0  0  0  0  0  0  0  0  0  0
   25.2590   51.0700   -2.8930 N   0  0  0  0  0  0  0  0  0  0  0  0
   24.3770   51.6530   -1.8660 C   0  0  0  0  0  0  0  0  0  0  0  0
   23.0760   52.0490   -2.4700 C   0  0  0  0  0  0  0  0  0  0  0  0
   23.3210   53.2020   -3.4120 C   0  0  0  0  0  0  0  0  0  0  0  0
   24.2910   53.9370   -3.4370 O   0  0  0  0  0  0  0  0  0  0  0  0
   22.2190   53.4940   -4.2050 O   0  0  0  0  0  0  0  0  0  0  0  0
   22.3100   54.6030   -5.1170 C   0  0  0  0  0  0  0  0  0  0  0  0
  2  1  1  0
  3  2  2  0
  5  2  1  0
  4  3  1  0
  7  4  2  0
  6  5  2  0
  7  6  1  0
  8  7  1  0
  9  8  1  0
 22  8  2  0
 10  9  1  0
 15  9  2  0
 11 10  1  0
 12 10  2  0
 13 12  1  0
 14 12  1  0
 15 14  1  0
 16 15  1  0
 17 16  1  0
 21 16  1  0
 18 17  1  0
 19 17  2  0
 20 19  1  0
 21 20  2  0
 23 21  1  0
 23 22  1  0
 24 23  1  0
 25 24  1  0
 26 25  2  0
 27 25  1  0
 28 27  1  0
A    1
CL1
A    2
C15
A    3
C16
A    4
C17
A    5
C13
A    6
C14
A    7
C12
A    8
C8
A    9
C5
A   10
C4
A   11
C7
A   12
C2
A   13
C6
A   14
S1
A   15
C3
A   16
N9
A   17
C11
A   18
C28
A   19
N27
A   20
N21
A   21
C19
A   22
N10
A   23
C20
A   24
C22
A   25
C23
A   26
O24
A   27
O25
A   28
C26
M  END
>  <Id>  (18) 
4F3I_0S6_A_203

>  <ChainId>  (18) 
A

>  <AsymId>  (18) 
D

>  <SeqNum>  (18) 
203

>  <Name>  (18) 
methyl [(6S)-4-(4-chlorophenyl)-2,3,9-trimethyl-6H-thieno[3,2-f][1,2,4]triazolo[4,3-a][1,4]diazepin-6-yl]acetate

>  <SystematicName>  (18) 
null

>  <Synonyms>  (18) 


>  <Type>  (18) 
NON-POLYMER

>  <Formula>  (18) 
C20 H19 Cl N4 O2 S

>  <ObservedFormula>  (18) 
C20 S Cl N4 O2

>  <MolecularWeight>  (18) 
414.908

>  <ModifiedDate>  (18) 
2012-09-07

>  <Parent>  (18) 


>  <OneLetterCode>  (18) 


>  <SubcomponentList>  (18) 


>  <AmbiguousFlag>  (18) 
N

>  <InsertionCode>  (18) 


>  <InstanceId>  (18) 
4F3I_0S6_A_203

>  <ChemCompId>  (18) 
0S6

>  <PdbId>  (18) 
4F3I

>  <ResidueNumber>  (18) 
203

>  <InChI>  (18) 
InChI=1S/C20H19ClN4O2S/c1-10-11(2)28-20-17(10)18(13-5-7-14(21)8-6-13)22-15(9-16(26)27-4)19-24-23-12(3)25(19)20/h5-8,15H,9H2,1-4H3/t15-/m0/s1

>  <InChIKey>  (18) 
GGRCIHACOIMRKY-HNNXBMFYSA-N

>  <SMILES>  (18) 
Cc1c(sc-2c1C(=N[C@H](c3n2c(nn3)C)CC(=O)OC)c4ccc(cc4)Cl)C

>  <MissingHeavyAtoms>  (18) 
0

>  <Model>  (18) 
1

>  <AltIds>  (18) 


>  <pKI>  (18) 
7.77

>  <ChemblID>  (18) 
-

>  <standardized_canonical_smiles>  (18) 
COC(=O)C[C@@H]1N=C(c2ccc(Cl)cc2)c2c(sc(C)c2C)-n2c(C)nnc21

$$$$
