3ZS5_SB2_A_1000
     RDKit          3D

 27 30  0  0  0  0  0  0  0  0999 V2000
   21.4950   39.2170   24.6280 O   0  0  0  0  0  0  0  0  0  0  0  0
   20.4710   36.8950   25.3950 C   0  0  0  0  0  0  0  0  0  0  0  0
   20.4250   38.3520   24.3140 S   0  0  0  0  0  0  0  0  0  0  0  0
   22.1290   35.8970   21.5670 C   0  0  0  0  0  0  0  0  0  0  0  0
   21.6760   36.4370   22.7620 C   0  0  0  0  0  0  0  0  0  0  0  0
   21.0170   37.6520   22.7820 C   0  0  0  0  0  0  0  0  0  0  0  0
   20.8110   38.3390   21.5990 C   0  0  0  0  0  0  0  0  0  0  0  0
   21.2680   37.8190   20.3990 C   0  0  0  0  0  0  0  0  0  0  0  0
   21.9640   36.6100   20.3760 C   0  0  0  0  0  0  0  0  0  0  0  0
   22.5320   36.6210   12.7700 N   0  0  0  0  0  0  0  0  0  0  0  0
   22.7800   37.6150   13.6260 C   0  0  0  0  0  0  0  0  0  0  0  0
   22.8830   37.3660   14.9820 C   0  0  0  0  0  0  0  0  0  0  0  0
   22.7400   36.0520   15.4780 C   0  0  0  0  0  0  0  0  0  0  0  0
   22.4610   35.0450   14.5480 C   0  0  0  0  0  0  0  0  0  0  0  0
   22.3910   35.3720   13.2070 C   0  0  0  0  0  0  0  0  0  0  0  0
   22.3030   36.6340   17.8870 N   0  0  0  0  0  0  0  0  0  0  0  0
   22.4070   36.0200   19.0930 C   0  0  0  0  0  0  0  0  0  0  0  0
   22.8630   34.7900   18.9300 N   0  0  0  0  0  0  0  0  0  0  0  0
   23.1140   34.5900   17.6100 C   0  0  0  0  0  0  0  0  0  0  0  0
   22.7780   35.7450   16.9230 C   0  0  0  0  0  0  0  0  0  0  0  0
   23.0970   32.0960   17.4960 C   0  0  0  0  0  0  0  0  0  0  0  0
   23.6360   30.9040   17.0550 C   0  0  0  0  0  0  0  0  0  0  0  0
   24.7640   30.9210   16.2400 C   0  0  0  0  0  0  0  0  0  0  0  0
   25.3430   32.1200   15.8660 C   0  0  0  0  0  0  0  0  0  0  0  0
   24.8140   33.3150   16.2920 C   0  0  0  0  0  0  0  0  0  0  0  0
   23.6720   33.3100   17.1080 C   0  0  0  0  0  0  0  0  0  0  0  0
   25.2770   29.7440   15.8080 F   0  0  0  0  0  0  0  0  0  0  0  0
  3  1  2  0
  3  2  1  0
  6  3  1  0
  5  4  2  0
  9  4  1  0
  6  5  1  0
  7  6  2  0
  8  7  1  0
  9  8  2  0
 17  9  1  0
 11 10  2  0
 15 10  1  0
 12 11  1  0
 13 12  2  0
 14 13  1  0
 20 13  1  0
 15 14  2  0
 17 16  1  0
 20 16  1  0
 18 17  2  0
 19 18  1  0
 20 19  2  0
 26 19  1  0
 22 21  2  0
 26 21  1  0
 23 22  1  0
 24 23  2  0
 27 23  1  0
 25 24  1  0
 26 25  2  0
A    1
O2
A    2
C1
A    3
S1
A    4
CA1
A    5
CA2
A    6
CA3
A    7
CA4
A    8
CA5
A    9
CA6
A   10
NB1
A   11
CB2
A   12
CB3
A   13
CB4
A   14
CB5
A   15
CB6
A   16
NC1
A   17
CC2
A   18
NC3
A   19
CC4
A   20
CC5
A   21
CD1
A   22
CD2
A   23
CD3
A   24
CD4
A   25
CD5
A   26
CD6
A   27
FD3
M  END
>  <Id>  (1) 
3ZS5_SB2_A_1000

>  <ChainId>  (1) 
A

>  <AsymId>  (1) 
B

>  <SeqNum>  (1) 
1000

>  <Name>  (1) 
4-[5-(4-FLUORO-PHENYL)-2-(4-METHANESULFINYL-PHENYL)-3H-IMIDAZOL-4-YL]-PYRIDINE

>  <SystematicName>  (1) 
4-[5-(4-fluorophenyl)-2-[4-[(S)-methylsulfinyl]phenyl]-3H-imidazol-4-yl]pyridine

>  <Synonyms>  (1) 


>  <Type>  (1) 
NON-POLYMER

>  <Formula>  (1) 
C21 H16 F N3 O S

>  <ObservedFormula>  (1) 
C21 S F N3 O

>  <MolecularWeight>  (1) 
377.435

>  <ModifiedDate>  (1) 
2012-01-05

>  <Parent>  (1) 


>  <OneLetterCode>  (1) 


>  <SubcomponentList>  (1) 


>  <AmbiguousFlag>  (1) 
N

>  <InsertionCode>  (1) 


>  <InstanceId>  (1) 
3ZS5_SB2_A_1000

>  <ChemCompId>  (1) 
SB2

>  <PdbId>  (1) 
3ZS5

>  <ResidueNumber>  (1) 
1000

>  <InChI>  (1) 
InChI=1S/C21H16FN3OS/c1-27(26)18-8-4-16(5-9-18)21-24-19(14-2-6-17(22)7-3-14)20(25-21)15-10-12-23-13-11-15/h2-13H,1H3,(H,24,25)/t27-/m0/s1

>  <InChIKey>  (1) 
CDMGBJANTYXAIV-MHZLTWQESA-N

>  <SMILES>  (1) 
C[S@](=O)c1ccc(cc1)c2[nH]c(c(n2)c3ccc(cc3)F)c4ccncc4

>  <MissingHeavyAtoms>  (1) 
0

>  <Model>  (1) 
1

>  <AltIds>  (1) 


>  <pKI>  (1) 
7.56

>  <ChemblID>  (1) 
CHEMBL10

>  <standardized_canonical_smiles>  (1) 
CS(=O)c1ccc(-c2nc(-c3ccncc3)c(-c3ccc(F)cc3)[nH]2)cc1

$$$$
3OBG_SB2_A_361
     RDKit          3D

 27 30  0  0  0  0  0  0  0  0999 V2000
   -3.0610    5.7050  -23.6560 O   0  0  0  0  0  0  0  0  0  0  0  0
   -3.3630    6.4530  -21.0180 C   0  0  0  0  0  0  0  0  0  0  0  0
   -2.1150    6.3980  -22.3280 S   0  0  0  0  0  0  0  0  0  0  0  0
    0.3140    4.1380  -19.9840 C   0  0  0  0  0  0  0  0  0  0  0  0
   -0.5540    5.1350  -20.4430 C   0  0  0  0  0  0  0  0  0  0  0  0
   -0.9920    5.1310  -21.7760 C   0  0  0  0  0  0  0  0  0  0  0  0
   -0.6090    4.1500  -22.6900 C   0  0  0  0  0  0  0  0  0  0  0  0
    0.2590    3.1710  -22.2240 C   0  0  0  0  0  0  0  0  0  0  0  0
    0.7470    3.1860  -20.9070 C   0  0  0  0  0  0  0  0  0  0  0  0
    3.1230   -3.9510  -21.7050 N   0  0  0  0  0  0  0  0  0  0  0  0
    3.0090   -3.6590  -20.4020 C   0  0  0  0  0  0  0  0  0  0  0  0
    2.8360   -2.3330  -19.9940 C   0  0  0  0  0  0  0  0  0  0  0  0
    2.8010   -1.3200  -20.9540 C   0  0  0  0  0  0  0  0  0  0  0  0
    2.9180   -1.6590  -22.2940 C   0  0  0  0  0  0  0  0  0  0  0  0
    3.0870   -2.9950  -22.6470 C   0  0  0  0  0  0  0  0  0  0  0  0
    1.6540    0.8740  -21.1520 N   0  0  0  0  0  0  0  0  0  0  0  0
    1.6320    2.0670  -20.5250 C   0  0  0  0  0  0  0  0  0  0  0  0
    2.4640    2.1500  -19.4570 N   0  0  0  0  0  0  0  0  0  0  0  0
    3.0770    0.9430  -19.4690 C   0  0  0  0  0  0  0  0  0  0  0  0
    2.5450    0.0840  -20.5450 C   0  0  0  0  0  0  0  0  0  0  0  0
    3.5110    0.6390  -17.1390 C   0  0  0  0  0  0  0  0  0  0  0  0
    4.2560    0.2090  -16.0660 C   0  0  0  0  0  0  0  0  0  0  0  0
    5.4850   -0.3890  -16.3110 C   0  0  0  0  0  0  0  0  0  0  0  0
    5.9860   -0.5400  -17.6250 C   0  0  0  0  0  0  0  0  0  0  0  0
    5.2280   -0.0970  -18.7020 C   0  0  0  0  0  0  0  0  0  0  0  0
    4.0090    0.5260  -18.4230 C   0  0  0  0  0  0  0  0  0  0  0  0
    6.1910   -0.8160  -15.2390 F   0  0  0  0  0  0  0  0  0  0  0  0
  3  1  2  0
  3  2  1  0
  6  3  1  0
  5  4  2  0
  9  4  1  0
  6  5  1  0
  7  6  2  0
  8  7  1  0
  9  8  2  0
 17  9  1  0
 11 10  2  0
 15 10  1  0
 12 11  1  0
 13 12  2  0
 14 13  1  0
 20 13  1  0
 15 14  2  0
 17 16  1  0
 20 16  1  0
 18 17  2  0
 19 18  1  0
 20 19  2  0
 26 19  1  0
 22 21  2  0
 26 21  1  0
 23 22  1  0
 24 23  2  0
 27 23  1  0
 25 24  1  0
 26 25  2  0
A    1
O2
A    2
C1
A    3
S1
A    4
CA1
A    5
CA2
A    6
CA3
A    7
CA4
A    8
CA5
A    9
CA6
A   10
NB1
A   11
CB2
A   12
CB3
A   13
CB4
A   14
CB5
A   15
CB6
A   16
NC1
A   17
CC2
A   18
NC3
A   19
CC4
A   20
CC5
A   21
CD1
A   22
CD2
A   23
CD3
A   24
CD4
A   25
CD5
A   26
CD6
A   27
FD3
M  END
>  <Id>  (2) 
3OBG_SB2_A_361

>  <ChainId>  (2) 
A

>  <AsymId>  (2) 
B

>  <SeqNum>  (2) 
361

>  <Name>  (2) 
4-[5-(4-FLUORO-PHENYL)-2-(4-METHANESULFINYL-PHENYL)-3H-IMIDAZOL-4-YL]-PYRIDINE

>  <SystematicName>  (2) 
4-[5-(4-fluorophenyl)-2-[4-[(S)-methylsulfinyl]phenyl]-3H-imidazol-4-yl]pyridine

>  <Synonyms>  (2) 


>  <Type>  (2) 
NON-POLYMER

>  <Formula>  (2) 
C21 H16 F N3 O S

>  <ObservedFormula>  (2) 
C21 S F N3 O

>  <MolecularWeight>  (2) 
377.435

>  <ModifiedDate>  (2) 
2012-01-05

>  <Parent>  (2) 


>  <OneLetterCode>  (2) 


>  <SubcomponentList>  (2) 


>  <AmbiguousFlag>  (2) 
N

>  <InsertionCode>  (2) 


>  <InstanceId>  (2) 
3OBG_SB2_A_361

>  <ChemCompId>  (2) 
SB2

>  <PdbId>  (2) 
3OBG

>  <ResidueNumber>  (2) 
361

>  <InChI>  (2) 
InChI=1S/C21H16FN3OS/c1-27(26)18-8-4-16(5-9-18)21-24-19(14-2-6-17(22)7-3-14)20(25-21)15-10-12-23-13-11-15/h2-13H,1H3,(H,24,25)/t27-/m0/s1

>  <InChIKey>  (2) 
CDMGBJANTYXAIV-MHZLTWQESA-N

>  <SMILES>  (2) 
C[S@](=O)c1ccc(cc1)c2[nH]c(c(n2)c3ccc(cc3)F)c4ccncc4

>  <MissingHeavyAtoms>  (2) 
0

>  <Model>  (2) 
1

>  <AltIds>  (2) 


>  <pKI>  (2) 
7.56

>  <ChemblID>  (2) 
CHEMBL10

>  <standardized_canonical_smiles>  (2) 
CS(=O)c1ccc(-c2nc(-c3ccncc3)c(-c3ccc(F)cc3)[nH]2)cc1

$$$$
3GCP_SB2_A_361
     RDKit          3D

 27 30  0  0  0  0  0  0  0  0999 V2000
   19.3390    4.0460  -13.4130 O   0  0  0  0  0  0  0  0  0  0  0  0
   20.2060    1.9050  -12.0000 C   0  0  0  0  0  0  0  0  0  0  0  0
   20.5580    3.2320  -13.1370 S   0  0  0  0  0  0  0  0  0  0  0  0
   21.4260    2.7990  -17.0840 C   0  0  0  0  0  0  0  0  0  0  0  0
   21.0220    3.3170  -15.8530 C   0  0  0  0  0  0  0  0  0  0  0  0
   21.0720    2.5350  -14.7110 C   0  0  0  0  0  0  0  0  0  0  0  0
   21.5290    1.2260  -14.8150 C   0  0  0  0  0  0  0  0  0  0  0  0
   21.9370    0.7070  -16.0390 C   0  0  0  0  0  0  0  0  0  0  0  0
   21.9050    1.4960  -17.1810 C   0  0  0  0  0  0  0  0  0  0  0  0
   22.4740    1.5140  -24.6930 N   0  0  0  0  0  0  0  0  0  0  0  0
   22.4030    0.2610  -24.2660 C   0  0  0  0  0  0  0  0  0  0  0  0
   22.4440   -0.0750  -22.9160 C   0  0  0  0  0  0  0  0  0  0  0  0
   22.5770    0.9370  -21.9590 C   0  0  0  0  0  0  0  0  0  0  0  0
   22.6180    2.2640  -22.4340 C   0  0  0  0  0  0  0  0  0  0  0  0
   22.5780    2.5160  -23.8210 C   0  0  0  0  0  0  0  0  0  0  0  0
   22.1540    1.5120  -19.6180 N   0  0  0  0  0  0  0  0  0  0  0  0
   22.2950    0.9530  -18.4150 C   0  0  0  0  0  0  0  0  0  0  0  0
   22.8190   -0.2610  -18.5790 N   0  0  0  0  0  0  0  0  0  0  0  0
   23.0190   -0.4900  -19.8700 C   0  0  0  0  0  0  0  0  0  0  0  0
   22.5990    0.6720  -20.5620 C   0  0  0  0  0  0  0  0  0  0  0  0
   23.0390   -2.9120  -19.8660 C   0  0  0  0  0  0  0  0  0  0  0  0
   23.6090   -4.1200  -20.2720 C   0  0  0  0  0  0  0  0  0  0  0  0
   24.7380   -4.1050  -21.1080 C   0  0  0  0  0  0  0  0  0  0  0  0
   25.2770   -2.8960  -21.5390 C   0  0  0  0  0  0  0  0  0  0  0  0
   24.7130   -1.6920  -21.1400 C   0  0  0  0  0  0  0  0  0  0  0  0
   23.5770   -1.6900  -20.3240 C   0  0  0  0  0  0  0  0  0  0  0  0
   25.3210   -5.2670  -21.5230 F   0  0  0  0  0  0  0  0  0  0  0  0
  3  1  2  0
  3  2  1  0
  6  3  1  0
  5  4  2  0
  9  4  1  0
  6  5  1  0
  7  6  2  0
  8  7  1  0
  9  8  2  0
 17  9  1  0
 11 10  2  0
 15 10  1  0
 12 11  1  0
 13 12  2  0
 14 13  1  0
 20 13  1  0
 15 14  2  0
 17 16  1  0
 20 16  1  0
 18 17  2  0
 19 18  1  0
 20 19  2  0
 26 19  1  0
 22 21  2  0
 26 21  1  0
 23 22  1  0
 24 23  2  0
 27 23  1  0
 25 24  1  0
 26 25  2  0
A    1
O2
A    2
C1
A    3
S1
A    4
CA1
A    5
CA2
A    6
CA3
A    7
CA4
A    8
CA5
A    9
CA6
A   10
NB1
A   11
CB2
A   12
CB3
A   13
CB4
A   14
CB5
A   15
CB6
A   16
NC1
A   17
CC2
A   18
NC3
A   19
CC4
A   20
CC5
A   21
CD1
A   22
CD2
A   23
CD3
A   24
CD4
A   25
CD5
A   26
CD6
A   27
FD3
M  END
>  <Id>  (3) 
3GCP_SB2_A_361

>  <ChainId>  (3) 
A

>  <AsymId>  (3) 
B

>  <SeqNum>  (3) 
361

>  <Name>  (3) 
4-[5-(4-FLUORO-PHENYL)-2-(4-METHANESULFINYL-PHENYL)-3H-IMIDAZOL-4-YL]-PYRIDINE

>  <SystematicName>  (3) 
4-[5-(4-fluorophenyl)-2-[4-[(S)-methylsulfinyl]phenyl]-3H-imidazol-4-yl]pyridine

>  <Synonyms>  (3) 


>  <Type>  (3) 
NON-POLYMER

>  <Formula>  (3) 
C21 H16 F N3 O S

>  <ObservedFormula>  (3) 
C21 S F N3 O

>  <MolecularWeight>  (3) 
377.435

>  <ModifiedDate>  (3) 
2012-01-05

>  <Parent>  (3) 


>  <OneLetterCode>  (3) 


>  <SubcomponentList>  (3) 


>  <AmbiguousFlag>  (3) 
N

>  <InsertionCode>  (3) 


>  <InstanceId>  (3) 
3GCP_SB2_A_361

>  <ChemCompId>  (3) 
SB2

>  <PdbId>  (3) 
3GCP

>  <ResidueNumber>  (3) 
361

>  <InChI>  (3) 
InChI=1S/C21H16FN3OS/c1-27(26)18-8-4-16(5-9-18)21-24-19(14-2-6-17(22)7-3-14)20(25-21)15-10-12-23-13-11-15/h2-13H,1H3,(H,24,25)/t27-/m0/s1

>  <InChIKey>  (3) 
CDMGBJANTYXAIV-MHZLTWQESA-N

>  <SMILES>  (3) 
C[S@](=O)c1ccc(cc1)c2[nH]c(c(n2)c3ccc(cc3)F)c4ccncc4

>  <MissingHeavyAtoms>  (3) 
0

>  <Model>  (3) 
1

>  <AltIds>  (3) 


>  <pKI>  (3) 
7.56

>  <ChemblID>  (3) 
CHEMBL10

>  <standardized_canonical_smiles>  (3) 
CS(=O)c1ccc(-c2nc(-c3ccncc3)c(-c3ccc(F)cc3)[nH]2)cc1

$$$$
1A9U_SB2_A_800
     RDKit          3D

 27 30  0  0  0  0  0  0  0  0999 V2000
   -0.9400   21.5700   27.8010 O   0  0  0  0  0  0  0  0  0  0  0  0
    1.7670   22.3460   28.2870 C   0  0  0  0  0  0  0  0  0  0  0  0
    0.5880   21.2640   27.4030 S   0  0  0  0  0  0  0  0  0  0  0  0
    0.4630   17.2150   27.7730 C   0  0  0  0  0  0  0  0  0  0  0  0
    0.0750   18.5630   27.5900 C   0  0  0  0  0  0  0  0  0  0  0  0
    1.0690   19.5790   27.6130 C   0  0  0  0  0  0  0  0  0  0  0  0
    2.4440   19.2780   27.8020 C   0  0  0  0  0  0  0  0  0  0  0  0
    2.8260   17.9330   27.9810 C   0  0  0  0  0  0  0  0  0  0  0  0
    1.8520   16.8530   27.9720 C   0  0  0  0  0  0  0  0  0  0  0  0
    0.4690    9.3540   28.9050 N   0  0  0  0  0  0  0  0  0  0  0  0
    0.0330   10.1300   27.8840 C   0  0  0  0  0  0  0  0  0  0  0  0
    0.5600   11.4490   27.6850 C   0  0  0  0  0  0  0  0  0  0  0  0
    1.5720   11.9530   28.5980 C   0  0  0  0  0  0  0  0  0  0  0  0
    1.9890   11.0570   29.6830 C   0  0  0  0  0  0  0  0  0  0  0  0
    1.4080    9.7650   29.7890 C   0  0  0  0  0  0  0  0  0  0  0  0
    1.3470   14.4320   28.2060 N   0  0  0  0  0  0  0  0  0  0  0  0
    2.2550   15.4900   28.1830 C   0  0  0  0  0  0  0  0  0  0  0  0
    3.5760   15.1690   28.3810 N   0  0  0  0  0  0  0  0  0  0  0  0
    3.5530   13.7840   28.5630 C   0  0  0  0  0  0  0  0  0  0  0  0
    2.1500   13.3030   28.4790 C   0  0  0  0  0  0  0  0  0  0  0  0
    5.3380   13.3370   30.1690 C   0  0  0  0  0  0  0  0  0  0  0  0
    6.5350   12.7070   30.5430 C   0  0  0  0  0  0  0  0  0  0  0  0
    7.1890   11.8340   29.6380 C   0  0  0  0  0  0  0  0  0  0  0  0
    6.6360   11.5840   28.3390 C   0  0  0  0  0  0  0  0  0  0  0  0
    5.4270   12.2190   27.9600 C   0  0  0  0  0  0  0  0  0  0  0  0
    4.7550   13.1100   28.8800 C   0  0  0  0  0  0  0  0  0  0  0  0
    8.3550   11.2330   30.0350 F   0  0  0  0  0  0  0  0  0  0  0  0
  3  1  2  0
  3  2  1  0
  6  3  1  0
  5  4  2  0
  9  4  1  0
  6  5  1  0
  7  6  2  0
  8  7  1  0
  9  8  2  0
 17  9  1  0
 11 10  2  0
 15 10  1  0
 12 11  1  0
 13 12  2  0
 14 13  1  0
 20 13  1  0
 15 14  2  0
 17 16  1  0
 20 16  1  0
 18 17  2  0
 19 18  1  0
 20 19  2  0
 26 19  1  0
 22 21  2  0
 26 21  1  0
 23 22  1  0
 24 23  2  0
 27 23  1  0
 25 24  1  0
 26 25  2  0
A    1
O2
A    2
C1
A    3
S1
A    4
CA1
A    5
CA2
A    6
CA3
A    7
CA4
A    8
CA5
A    9
CA6
A   10
NB1
A   11
CB2
A   12
CB3
A   13
CB4
A   14
CB5
A   15
CB6
A   16
NC1
A   17
CC2
A   18
NC3
A   19
CC4
A   20
CC5
A   21
CD1
A   22
CD2
A   23
CD3
A   24
CD4
A   25
CD5
A   26
CD6
A   27
FD3
M  END
>  <Id>  (4) 
1A9U_SB2_A_800

>  <ChainId>  (4) 
A

>  <AsymId>  (4) 
B

>  <SeqNum>  (4) 
800

>  <Name>  (4) 
4-[5-(4-FLUORO-PHENYL)-2-(4-METHANESULFINYL-PHENYL)-3H-IMIDAZOL-4-YL]-PYRIDINE

>  <SystematicName>  (4) 
4-[5-(4-fluorophenyl)-2-[4-[(S)-methylsulfinyl]phenyl]-3H-imidazol-4-yl]pyridine

>  <Synonyms>  (4) 


>  <Type>  (4) 
NON-POLYMER

>  <Formula>  (4) 
C21 H16 F N3 O S

>  <ObservedFormula>  (4) 
C21 S F N3 O

>  <MolecularWeight>  (4) 
377.435

>  <ModifiedDate>  (4) 
2012-01-05

>  <Parent>  (4) 


>  <OneLetterCode>  (4) 


>  <SubcomponentList>  (4) 


>  <AmbiguousFlag>  (4) 
N

>  <InsertionCode>  (4) 


>  <InstanceId>  (4) 
1A9U_SB2_A_800

>  <ChemCompId>  (4) 
SB2

>  <PdbId>  (4) 
1A9U

>  <ResidueNumber>  (4) 
800

>  <InChI>  (4) 
InChI=1S/C21H16FN3OS/c1-27(26)18-8-4-16(5-9-18)21-24-19(14-2-6-17(22)7-3-14)20(25-21)15-10-12-23-13-11-15/h2-13H,1H3,(H,24,25)/t27-/m0/s1

>  <InChIKey>  (4) 
CDMGBJANTYXAIV-MHZLTWQESA-N

>  <SMILES>  (4) 
C[S@](=O)c1ccc(cc1)c2[nH]c(c(n2)c3ccc(cc3)F)c4ccncc4

>  <MissingHeavyAtoms>  (4) 
0

>  <Model>  (4) 
1

>  <AltIds>  (4) 


>  <pKI>  (4) 
7.56

>  <ChemblID>  (4) 
CHEMBL10

>  <standardized_canonical_smiles>  (4) 
CS(=O)c1ccc(-c2nc(-c3ccncc3)c(-c3ccc(F)cc3)[nH]2)cc1

$$$$
3MPA_SB2_A_361
     RDKit          3D

 27 30  0  0  0  0  0  0  0  0999 V2000
    2.0620   -5.9260  -24.2070 O   0  0  0  0  0  0  0  0  0  0  0  0
    3.4310   -6.1300  -21.7260 C   0  0  0  0  0  0  0  0  0  0  0  0
    1.8090   -6.3290  -22.4670 S   0  0  0  0  0  0  0  0  0  0  0  0
    0.1530   -2.6710  -21.8830 C   0  0  0  0  0  0  0  0  0  0  0  0
    0.9830   -3.7040  -22.3110 C   0  0  0  0  0  0  0  0  0  0  0  0
    0.7290   -5.0010  -21.8770 C   0  0  0  0  0  0  0  0  0  0  0  0
   -0.3450   -5.2550  -21.0160 C   0  0  0  0  0  0  0  0  0  0  0  0
   -1.1790   -4.2160  -20.5910 C   0  0  0  0  0  0  0  0  0  0  0  0
   -0.9260   -2.9120  -21.0330 C   0  0  0  0  0  0  0  0  0  0  0  0
   -3.1190    4.3250  -21.8910 N   0  0  0  0  0  0  0  0  0  0  0  0
   -3.1370    3.3510  -22.8050 C   0  0  0  0  0  0  0  0  0  0  0  0
   -2.9550    2.0290  -22.4030 C   0  0  0  0  0  0  0  0  0  0  0  0
   -2.8160    1.7210  -21.0430 C   0  0  0  0  0  0  0  0  0  0  0  0
   -2.8030    2.7650  -20.1130 C   0  0  0  0  0  0  0  0  0  0  0  0
   -2.9560    4.0780  -20.5700 C   0  0  0  0  0  0  0  0  0  0  0  0
   -1.7470   -0.5260  -21.2730 N   0  0  0  0  0  0  0  0  0  0  0  0
   -1.7370   -1.7160  -20.6370 C   0  0  0  0  0  0  0  0  0  0  0  0
   -2.5450   -1.7530  -19.5380 N   0  0  0  0  0  0  0  0  0  0  0  0
   -3.1110   -0.5320  -19.5140 C   0  0  0  0  0  0  0  0  0  0  0  0
   -2.5860    0.3000  -20.6330 C   0  0  0  0  0  0  0  0  0  0  0  0
   -3.6440   -0.3930  -17.1040 C   0  0  0  0  0  0  0  0  0  0  0  0
   -4.4690   -0.0020  -16.0660 C   0  0  0  0  0  0  0  0  0  0  0  0
   -5.6550    0.6570  -16.3480 C   0  0  0  0  0  0  0  0  0  0  0  0
   -6.0430    0.9160  -17.6600 C   0  0  0  0  0  0  0  0  0  0  0  0
   -5.2160    0.5240  -18.7120 C   0  0  0  0  0  0  0  0  0  0  0  0
   -4.0300   -0.1520  -18.4230 C   0  0  0  0  0  0  0  0  0  0  0  0
   -6.4180    1.0480  -15.3250 F   0  0  0  0  0  0  0  0  0  0  0  0
  3  1  2  0
  3  2  1  0
  6  3  1  0
  5  4  2  0
  9  4  1  0
  6  5  1  0
  7  6  2  0
  8  7  1  0
  9  8  2  0
 17  9  1  0
 11 10  2  0
 15 10  1  0
 12 11  1  0
 13 12  2  0
 14 13  1  0
 20 13  1  0
 15 14  2  0
 17 16  1  0
 20 16  1  0
 18 17  2  0
 19 18  1  0
 20 19  2  0
 26 19  1  0
 22 21  2  0
 26 21  1  0
 23 22  1  0
 24 23  2  0
 27 23  1  0
 25 24  1  0
 26 25  2  0
A    1
O2
A    2
C1
A    3
S1
A    4
CA1
A    5
CA2
A    6
CA3
A    7
CA4
A    8
CA5
A    9
CA6
A   10
NB1
A   11
CB2
A   12
CB3
A   13
CB4
A   14
CB5
A   15
CB6
A   16
NC1
A   17
CC2
A   18
NC3
A   19
CC4
A   20
CC5
A   21
CD1
A   22
CD2
A   23
CD3
A   24
CD4
A   25
CD5
A   26
CD6
A   27
FD3
M  END
>  <Id>  (5) 
3MPA_SB2_A_361

>  <ChainId>  (5) 
A

>  <AsymId>  (5) 
B

>  <SeqNum>  (5) 
361

>  <Name>  (5) 
4-[5-(4-FLUORO-PHENYL)-2-(4-METHANESULFINYL-PHENYL)-3H-IMIDAZOL-4-YL]-PYRIDINE

>  <SystematicName>  (5) 
4-[5-(4-fluorophenyl)-2-[4-[(S)-methylsulfinyl]phenyl]-3H-imidazol-4-yl]pyridine

>  <Synonyms>  (5) 


>  <Type>  (5) 
NON-POLYMER

>  <Formula>  (5) 
C21 H16 F N3 O S

>  <ObservedFormula>  (5) 
C21 S F N3 O

>  <MolecularWeight>  (5) 
377.435

>  <ModifiedDate>  (5) 
2012-01-05

>  <Parent>  (5) 


>  <OneLetterCode>  (5) 


>  <SubcomponentList>  (5) 


>  <AmbiguousFlag>  (5) 
N

>  <InsertionCode>  (5) 


>  <InstanceId>  (5) 
3MPA_SB2_A_361

>  <ChemCompId>  (5) 
SB2

>  <PdbId>  (5) 
3MPA

>  <ResidueNumber>  (5) 
361

>  <InChI>  (5) 
InChI=1S/C21H16FN3OS/c1-27(26)18-8-4-16(5-9-18)21-24-19(14-2-6-17(22)7-3-14)20(25-21)15-10-12-23-13-11-15/h2-13H,1H3,(H,24,25)/t27-/m0/s1

>  <InChIKey>  (5) 
CDMGBJANTYXAIV-MHZLTWQESA-N

>  <SMILES>  (5) 
C[S@](=O)c1ccc(cc1)c2[nH]c(c(n2)c3ccc(cc3)F)c4ccncc4

>  <MissingHeavyAtoms>  (5) 
0

>  <Model>  (5) 
1

>  <AltIds>  (5) 


>  <pKI>  (5) 
7.56

>  <ChemblID>  (5) 
CHEMBL10

>  <standardized_canonical_smiles>  (5) 
CS(=O)c1ccc(-c2nc(-c3ccncc3)c(-c3ccc(F)cc3)[nH]2)cc1

$$$$
3HP5_52P_A_401
     RDKit          3D

 28 31  0  0  0  0  0  0  0  0999 V2000
   38.5180   37.8990   14.5200 F   0  0  0  0  0  0  0  0  0  0  0  0
   37.9700   37.3140   15.6000 C   0  0  0  0  0  0  0  0  0  0  0  0
   36.8170   36.5950   15.4310 C   0  0  0  0  0  0  0  0  0  0  0  0
   36.2370   35.9790   16.5130 C   0  0  0  0  0  0  0  0  0  0  0  0
   36.7880   36.0740   17.7710 C   0  0  0  0  0  0  0  0  0  0  0  0
   35.9940   35.2390   19.1170 S   0  0  0  0  0  0  0  0  0  0  0  0
   35.4900   36.4970   20.2280 C   0  0  0  0  0  0  0  0  0  0  0  0
   35.1310   36.0310   21.5810 C   0  0  0  0  0  0  0  0  0  0  0  0
   34.7530   37.0150   22.4030 C   0  0  0  0  0  0  0  0  0  0  0  0
   34.6980   38.3960   22.0050 C   0  0  0  0  0  0  0  0  0  0  0  0
   34.3000   39.3610   22.8600 C   0  0  0  0  0  0  0  0  0  0  0  0
   33.9020   39.0900   24.2470 C   0  0  0  0  0  0  0  0  0  0  0  0
   32.6630   38.5690   24.5800 C   0  0  0  0  0  0  0  0  0  0  0  0
   31.4680   38.1760   23.3900 Cl  0  0  0  0  0  0  0  0  0  0  0  0
   32.3450   38.3360   25.9030 C   0  0  0  0  0  0  0  0  0  0  0  0
   33.2470   38.6220   26.9050 C   0  0  0  0  0  0  0  0  0  0  0  0
   34.4760   39.1450   26.5850 C   0  0  0  0  0  0  0  0  0  0  0  0
   34.7900   39.3730   25.2660 C   0  0  0  0  0  0  0  0  0  0  0  0
   36.3360   40.0270   24.9020 Cl  0  0  0  0  0  0  0  0  0  0  0  0
   34.2740   40.7490   22.3700 C   0  0  0  0  0  0  0  0  0  0  0  0
   33.9380   41.7140   23.0310 O   0  0  0  0  0  0  0  0  0  0  0  0
   34.6720   40.9250   21.0340 N   0  0  0  0  0  0  0  0  0  0  0  0
   35.0270   39.9180   20.2890 C   0  0  0  0  0  0  0  0  0  0  0  0
   35.0640   38.6650   20.6990 N   0  0  0  0  0  0  0  0  0  0  0  0
   35.4630   37.7050   19.7940 N   0  0  0  0  0  0  0  0  0  0  0  0
   37.9520   36.8010   17.9270 C   0  0  0  0  0  0  0  0  0  0  0  0
   38.5020   36.9010   19.1480 F   0  0  0  0  0  0  0  0  0  0  0  0
   38.5500   37.4260   16.8490 C   0  0  0  0  0  0  0  0  0  0  0  0
  2  1  1  0
  3  2  2  0
 28  2  1  0
  4  3  1  0
  5  4  2  0
  6  5  1  0
 26  5  1  0
  7  6  1  0
  8  7  1  0
 25  7  2  0
  9  8  2  0
 10  9  1  0
 11 10  2  0
 24 10  1  0
 12 11  1  0
 20 11  1  0
 13 12  2  0
 18 12  1  0
 14 13  1  0
 15 13  1  0
 16 15  2  0
 17 16  1  0
 18 17  2  0
 19 18  1  0
 21 20  2  0
 22 20  1  0
 23 22  2  0
 24 23  1  0
 25 24  1  0
 27 26  1  0
 28 26  2  0
A    1
F1
A    2
C2
A    3
C3
A    4
C4
A    5
C5
A    6
S6
A    7
C7
A    8
C8
A    9
C9
A   10
C10
A   11
C11
A   12
C12
A   13
C13
A   14
CL14
A   15
C15
A   16
C16
A   17
C17
A   18
C18
A   19
CL19
A   20
C20
A   21
O21
A   22
N22
A   23
C23
A   24
N24
A   25
N25
A   26
C26
A   27
F27
A   28
C28
M  END
>  <Id>  (6) 
3HP5_52P_A_401

>  <ChainId>  (6) 
A

>  <AsymId>  (6) 
B

>  <SeqNum>  (6) 
401

>  <Name>  (6) 
5-(2,6-dichlorophenyl)-2-[(2,4-difluorophenyl)sulfanyl]-6H-pyrimido[1,6-b]pyridazin-6-one

>  <SystematicName>  (6) 
5-(2,6-dichlorophenyl)-2-(2,4-difluorophenyl)sulfanyl-pyridazino[6,1-f]pyrimidin-6-one

>  <Synonyms>  (6) 


>  <Type>  (6) 
NON-POLYMER

>  <Formula>  (6) 
C19 H9 Cl2 F2 N3 O S

>  <ObservedFormula>  (6) 
C19 S F2 Cl2 N3 O

>  <MolecularWeight>  (6) 
436.262

>  <ModifiedDate>  (6) 
2011-06-04

>  <Parent>  (6) 


>  <OneLetterCode>  (6) 


>  <SubcomponentList>  (6) 


>  <AmbiguousFlag>  (6) 
N

>  <InsertionCode>  (6) 


>  <InstanceId>  (6) 
3HP5_52P_A_401

>  <ChemCompId>  (6) 
52P

>  <PdbId>  (6) 
3HP5

>  <ResidueNumber>  (6) 
401

>  <InChI>  (6) 
InChI=1S/C19H9Cl2F2N3OS/c20-11-2-1-3-12(21)17(11)18-14-5-7-16(25-26(14)9-24-19(18)27)28-15-6-4-10(22)8-13(15)23/h1-9H

>  <InChIKey>  (6) 
VEPKQEUBKLEPRA-UHFFFAOYSA-N

>  <SMILES>  (6) 
c1cc(c(c(c1)Cl)C2=C3C=CC(=NN3C=NC2=O)Sc4ccc(cc4F)F)Cl

>  <MissingHeavyAtoms>  (6) 
0

>  <Model>  (6) 
1

>  <AltIds>  (6) 


>  <pKI>  (6) 
8.3

>  <ChemblID>  (6) 
CHEMBL119385

>  <standardized_canonical_smiles>  (6) 
O=c1ncn2nc(Sc3ccc(F)cc3F)ccc2c1-c1c(Cl)cccc1Cl

$$$$
3ZSI_52P_A_1000
     RDKit          3D

 28 31  0  0  0  0  0  0  0  0999 V2000
   -6.4750   -1.8380   14.7850 F   0  0  0  0  0  0  0  0  0  0  0  0
   -5.7860   -1.1450   15.7090 C   0  0  0  0  0  0  0  0  0  0  0  0
   -4.6290   -0.4640   15.3620 C   0  0  0  0  0  0  0  0  0  0  0  0
   -3.9320    0.2440   16.3260 C   0  0  0  0  0  0  0  0  0  0  0  0
   -4.3950    0.2730   17.6400 C   0  0  0  0  0  0  0  0  0  0  0  0
   -3.5100    1.1770   18.8620 S   0  0  0  0  0  0  0  0  0  0  0  0
   -3.0230   -0.0610   20.0210 C   0  0  0  0  0  0  0  0  0  0  0  0
   -2.6530    0.3470   21.3240 C   0  0  0  0  0  0  0  0  0  0  0  0
   -2.2710   -0.5750   22.2460 C   0  0  0  0  0  0  0  0  0  0  0  0
   -2.2540   -1.9420   21.8900 C   0  0  0  0  0  0  0  0  0  0  0  0
   -1.8670   -2.9420   22.8050 C   0  0  0  0  0  0  0  0  0  0  0  0
   -1.4610   -2.6290   24.1980 C   0  0  0  0  0  0  0  0  0  0  0  0
   -2.3450   -2.8760   25.2550 C   0  0  0  0  0  0  0  0  0  0  0  0
   -3.9090   -3.5480   24.9430 Cl  0  0  0  0  0  0  0  0  0  0  0  0
   -1.9780   -2.5860   26.5560 C   0  0  0  0  0  0  0  0  0  0  0  0
   -0.7300   -2.0490   26.8180 C   0  0  0  0  0  0  0  0  0  0  0  0
    0.1540   -1.7990   25.7810 C   0  0  0  0  0  0  0  0  0  0  0  0
   -0.2020   -2.0850   24.4740 C   0  0  0  0  0  0  0  0  0  0  0  0
    0.9170   -1.7580   23.1910 Cl  0  0  0  0  0  0  0  0  0  0  0  0
   -1.8820   -4.2860   22.3510 C   0  0  0  0  0  0  0  0  0  0  0  0
   -1.5580   -5.1930   23.1050 O   0  0  0  0  0  0  0  0  0  0  0  0
   -2.2520   -4.5640   21.0870 N   0  0  0  0  0  0  0  0  0  0  0  0
   -2.6060   -3.6250   20.2500 C   0  0  0  0  0  0  0  0  0  0  0  0
   -2.6210   -2.3140   20.6090 N   0  0  0  0  0  0  0  0  0  0  0  0
   -3.0060   -1.3330   19.6810 N   0  0  0  0  0  0  0  0  0  0  0  0
   -5.5560   -0.4150   17.9840 C   0  0  0  0  0  0  0  0  0  0  0  0
   -6.0150   -0.3930   19.2540 F   0  0  0  0  0  0  0  0  0  0  0  0
   -6.2470   -1.1190   17.0130 C   0  0  0  0  0  0  0  0  0  0  0  0
  2  1  1  0
  3  2  2  0
 28  2  1  0
  4  3  1  0
  5  4  2  0
  6  5  1  0
 26  5  1  0
  7  6  1  0
  8  7  1  0
 25  7  2  0
  9  8  2  0
 10  9  1  0
 11 10  2  0
 24 10  1  0
 12 11  1  0
 20 11  1  0
 13 12  2  0
 18 12  1  0
 14 13  1  0
 15 13  1  0
 16 15  2  0
 17 16  1  0
 18 17  2  0
 19 18  1  0
 21 20  2  0
 22 20  1  0
 23 22  2  0
 24 23  1  0
 25 24  1  0
 27 26  1  0
 28 26  2  0
A    1
F1
A    2
C2
A    3
C3
A    4
C4
A    5
C5
A    6
S6
A    7
C7
A    8
C8
A    9
C9
A   10
C10
A   11
C11
A   12
C12
A   13
C13
A   14
CL14
A   15
C15
A   16
C16
A   17
C17
A   18
C18
A   19
CL19
A   20
C20
A   21
O21
A   22
N22
A   23
C23
A   24
N24
A   25
N25
A   26
C26
A   27
F27
A   28
C28
M  END
>  <Id>  (7) 
3ZSI_52P_A_1000

>  <ChainId>  (7) 
A

>  <AsymId>  (7) 
B

>  <SeqNum>  (7) 
1000

>  <Name>  (7) 
5-(2,6-dichlorophenyl)-2-[(2,4-difluorophenyl)sulfanyl]-6H-pyrimido[1,6-b]pyridazin-6-one

>  <SystematicName>  (7) 
5-(2,6-dichlorophenyl)-2-(2,4-difluorophenyl)sulfanyl-pyridazino[6,1-f]pyrimidin-6-one

>  <Synonyms>  (7) 


>  <Type>  (7) 
NON-POLYMER

>  <Formula>  (7) 
C19 H9 Cl2 F2 N3 O S

>  <ObservedFormula>  (7) 
C19 S F2 Cl2 N3 O

>  <MolecularWeight>  (7) 
436.262

>  <ModifiedDate>  (7) 
2011-06-04

>  <Parent>  (7) 


>  <OneLetterCode>  (7) 


>  <SubcomponentList>  (7) 


>  <AmbiguousFlag>  (7) 
N

>  <InsertionCode>  (7) 


>  <InstanceId>  (7) 
3ZSI_52P_A_1000

>  <ChemCompId>  (7) 
52P

>  <PdbId>  (7) 
3ZSI

>  <ResidueNumber>  (7) 
1000

>  <InChI>  (7) 
InChI=1S/C19H9Cl2F2N3OS/c20-11-2-1-3-12(21)17(11)18-14-5-7-16(25-26(14)9-24-19(18)27)28-15-6-4-10(22)8-13(15)23/h1-9H

>  <InChIKey>  (7) 
VEPKQEUBKLEPRA-UHFFFAOYSA-N

>  <SMILES>  (7) 
c1cc(c(c(c1)Cl)C2=C3C=CC(=NN3C=NC2=O)Sc4ccc(cc4F)F)Cl

>  <MissingHeavyAtoms>  (7) 
0

>  <Model>  (7) 
1

>  <AltIds>  (7) 


>  <pKI>  (7) 
8.3

>  <ChemblID>  (7) 
CHEMBL119385

>  <standardized_canonical_smiles>  (7) 
O=c1ncn2nc(Sc3ccc(F)cc3F)ccc2c1-c1c(Cl)cccc1Cl

$$$$
3FC1_52P_X_362
     RDKit          3D

 28 31  0  0  0  0  0  0  0  0999 V2000
   36.8510   32.5670   31.2450 F   0  0  0  0  0  0  0  0  0  0  0  0
   38.0210   31.9520   31.0380 C   0  0  0  0  0  0  0  0  0  0  0  0
   38.4750   31.0110   31.9500 C   0  0  0  0  0  0  0  0  0  0  0  0
   39.6910   30.3890   31.7150 C   0  0  0  0  0  0  0  0  0  0  0  0
   40.4310   30.7200   30.5800 C   0  0  0  0  0  0  0  0  0  0  0  0
   41.9650   29.9150   30.2870 S   0  0  0  0  0  0  0  0  0  0  0  0
   43.2720   31.0880   30.5140 C   0  0  0  0  0  0  0  0  0  0  0  0
   44.5630   30.7640   30.0280 C   0  0  0  0  0  0  0  0  0  0  0  0
   45.6000   31.6340   30.1920 C   0  0  0  0  0  0  0  0  0  0  0  0
   45.3680   32.8640   30.8560 C   0  0  0  0  0  0  0  0  0  0  0  0
   46.3990   33.8150   31.0630 C   0  0  0  0  0  0  0  0  0  0  0  0
   47.8010   33.5940   30.6130 C   0  0  0  0  0  0  0  0  0  0  0  0
   48.6950   32.8010   31.3550 C   0  0  0  0  0  0  0  0  0  0  0  0
   48.2150   32.0250   32.8300 Cl  0  0  0  0  0  0  0  0  0  0  0  0
   49.9980   32.6100   30.9090 C   0  0  0  0  0  0  0  0  0  0  0  0
   50.4300   33.2100   29.7390 C   0  0  0  0  0  0  0  0  0  0  0  0
   49.5640   34.0030   29.0030 C   0  0  0  0  0  0  0  0  0  0  0  0
   48.2620   34.1940   29.4350 C   0  0  0  0  0  0  0  0  0  0  0  0
   47.1870   35.1850   28.4960 Cl  0  0  0  0  0  0  0  0  0  0  0  0
   46.0390   35.0120   31.7480 C   0  0  0  0  0  0  0  0  0  0  0  0
   46.8820   35.8740   31.9620 O   0  0  0  0  0  0  0  0  0  0  0  0
   44.7770   35.2060   32.1650 N   0  0  0  0  0  0  0  0  0  0  0  0
   43.8430   34.3200   31.9640 C   0  0  0  0  0  0  0  0  0  0  0  0
   44.0970   33.1500   31.3200 N   0  0  0  0  0  0  0  0  0  0  0  0
   43.0560   32.2300   31.1330 N   0  0  0  0  0  0  0  0  0  0  0  0
   39.9570   31.6640   29.6690 C   0  0  0  0  0  0  0  0  0  0  0  0
   40.6670   31.9750   28.5680 F   0  0  0  0  0  0  0  0  0  0  0  0
   38.7490   32.2850   29.9030 C   0  0  0  0  0  0  0  0  0  0  0  0
  2  1  1  0
  3  2  2  0
 28  2  1  0
  4  3  1  0
  5  4  2  0
  6  5  1  0
 26  5  1  0
  7  6  1  0
  8  7  1  0
 25  7  2  0
  9  8  2  0
 10  9  1  0
 11 10  2  0
 24 10  1  0
 12 11  1  0
 20 11  1  0
 13 12  2  0
 18 12  1  0
 14 13  1  0
 15 13  1  0
 16 15  2  0
 17 16  1  0
 18 17  2  0
 19 18  1  0
 21 20  2  0
 22 20  1  0
 23 22  2  0
 24 23  1  0
 25 24  1  0
 27 26  1  0
 28 26  2  0
A    1
F1
A    2
C2
A    3
C3
A    4
C4
A    5
C5
A    6
S6
A    7
C7
A    8
C8
A    9
C9
A   10
C10
A   11
C11
A   12
C12
A   13
C13
A   14
CL14
A   15
C15
A   16
C16
A   17
C17
A   18
C18
A   19
CL19
A   20
C20
A   21
O21
A   22
N22
A   23
C23
A   24
N24
A   25
N25
A   26
C26
A   27
F27
A   28
C28
M  END
>  <Id>  (8) 
3FC1_52P_X_362

>  <ChainId>  (8) 
X

>  <AsymId>  (8) 
C

>  <SeqNum>  (8) 
362

>  <Name>  (8) 
5-(2,6-dichlorophenyl)-2-[(2,4-difluorophenyl)sulfanyl]-6H-pyrimido[1,6-b]pyridazin-6-one

>  <SystematicName>  (8) 
5-(2,6-dichlorophenyl)-2-(2,4-difluorophenyl)sulfanyl-pyridazino[6,1-f]pyrimidin-6-one

>  <Synonyms>  (8) 


>  <Type>  (8) 
NON-POLYMER

>  <Formula>  (8) 
C19 H9 Cl2 F2 N3 O S

>  <ObservedFormula>  (8) 
C19 S F2 Cl2 N3 O

>  <MolecularWeight>  (8) 
436.262

>  <ModifiedDate>  (8) 
2011-06-04

>  <Parent>  (8) 


>  <OneLetterCode>  (8) 


>  <SubcomponentList>  (8) 


>  <AmbiguousFlag>  (8) 
N

>  <InsertionCode>  (8) 


>  <InstanceId>  (8) 
3FC1_52P_X_362

>  <ChemCompId>  (8) 
52P

>  <PdbId>  (8) 
3FC1

>  <ResidueNumber>  (8) 
362

>  <InChI>  (8) 
InChI=1S/C19H9Cl2F2N3OS/c20-11-2-1-3-12(21)17(11)18-14-5-7-16(25-26(14)9-24-19(18)27)28-15-6-4-10(22)8-13(15)23/h1-9H

>  <InChIKey>  (8) 
VEPKQEUBKLEPRA-UHFFFAOYSA-N

>  <SMILES>  (8) 
c1cc(c(c(c1)Cl)C2=C3C=CC(=NN3C=NC2=O)Sc4ccc(cc4F)F)Cl

>  <MissingHeavyAtoms>  (8) 
0

>  <Model>  (8) 
1

>  <AltIds>  (8) 


>  <pKI>  (8) 
8.3

>  <ChemblID>  (8) 
CHEMBL119385

>  <standardized_canonical_smiles>  (8) 
O=c1ncn2nc(Sc3ccc(F)cc3F)ccc2c1-c1c(Cl)cccc1Cl

$$$$
3HEG_BAX_A_1
     RDKit          3D

 32 34  0  0  0  0  0  0  0  0999 V2000
   -1.9780    2.2590   25.9480 C   0  0  0  0  0  0  0  0  0  0  0  0
   -1.2280    3.4280   25.8570 C   0  0  0  0  0  0  0  0  0  0  0  0
   -1.6980    4.5910   26.4520 C   0  0  0  0  0  0  0  0  0  0  0  0
   -2.9200    4.6600   27.1000 C   0  0  0  0  0  0  0  0  0  0  0  0
    0.4480    2.7040   24.2850 C   0  0  0  0  0  0  0  0  0  0  0  0
    2.3380    2.3780   22.9000 C   0  0  0  0  0  0  0  0  0  0  0  0
    1.6560    2.2710   21.6650 C   0  0  0  0  0  0  0  0  0  0  0  0
    2.3330    1.8220   20.5270 C   0  0  0  0  0  0  0  0  0  0  0  0
    3.7070    1.4910   20.6340 C   0  0  0  0  0  0  0  0  0  0  0  0
    4.3820    1.5940   21.8510 C   0  0  0  0  0  0  0  0  0  0  0  0
    3.6920    2.0440   22.9670 C   0  0  0  0  0  0  0  0  0  0  0  0
    4.4640    1.0880   19.5620 O   0  0  0  0  0  0  0  0  0  0  0  0
    3.7130   -1.0290   18.8880 C   0  0  0  0  0  0  0  0  0  0  0  0
    3.4170   -1.9280   17.8630 C   0  0  0  0  0  0  0  0  0  0  0  0
    4.0410   -0.3090   16.2360 C   0  0  0  0  0  0  0  0  0  0  0  0
    4.3280    0.6230   17.2290 C   0  0  0  0  0  0  0  0  0  0  0  0
    4.1010   -1.0340   13.8920 N   0  0  0  0  0  0  0  0  0  0  0  0
    3.2530   -1.0040   12.7050 C   0  0  0  0  0  0  0  0  0  0  0  0
   -3.7100    3.5350   27.1680 C   0  0  0  0  0  0  0  0  0  0  0  0
   -3.2190    2.2650   26.5840 C   0  0  0  0  0  0  0  0  0  0  0  0
   -4.0500    0.9970   26.6980 C   0  0  0  0  0  0  0  0  0  0  0  0
   -5.2380    1.1420   26.2110 F   0  0  0  0  0  0  0  0  0  0  0  0
   -3.4800    0.0010   26.1220 F   0  0  0  0  0  0  0  0  0  0  0  0
   -4.2250    0.6490   27.9280 F   0  0  0  0  0  0  0  0  0  0  0  0
   -5.2760    3.5990   28.0420 Cl  0  0  0  0  0  0  0  0  0  0  0  0
   -0.0220    3.4870   25.2640 N   0  0  0  0  0  0  0  0  0  0  0  0
    1.7480    2.8090   24.0510 N   0  0  0  0  0  0  0  0  0  0  0  0
   -0.2620    1.9460   23.6160 O   0  0  0  0  0  0  0  0  0  0  0  0
    4.1550    0.2360   18.5580 C   0  0  0  0  0  0  0  0  0  0  0  0
    3.5810   -1.5370   16.5780 N   0  0  0  0  0  0  0  0  0  0  0  0
    4.1310    0.0000   14.7620 C   0  0  0  0  0  0  0  0  0  0  0  0
    4.1550    1.1730   14.3910 O   0  0  0  0  0  0  0  0  0  0  0  0
  2  1  2  0
 20  1  1  0
  3  2  1  0
 26  2  1  0
  4  3  2  0
 19  4  1  0
 26  5  1  0
 27  5  1  0
 28  5  2  0
  7  6  2  0
 11  6  1  0
 27  6  1  0
  8  7  1  0
  9  8  2  0
 10  9  1  0
 12  9  1  0
 11 10  2  0
 29 12  1  0
 14 13  2  0
 29 13  1  0
 30 14  1  0
 16 15  1  0
 30 15  2  0
 31 15  1  0
 29 16  2  0
 18 17  1  0
 31 17  1  0
 20 19  2  0
 25 19  1  0
 21 20  1  0
 22 21  1  0
 23 21  1  0
 24 21  1  0
 32 31  2  0
A    1
C1
A    2
C2
A    3
C3
A    4
C4
A    5
C13
A    6
C16
A    7
C17
A    8
C18
A    9
C19
A   10
C20
A   11
C21
A   12
O22
A   13
C24
A   14
C25
A   15
C27
A   16
C28
A   17
N30
A   18
C31
A   19
C5
A   20
C6
A   21
C7
A   22
F8
A   23
F9
A   24
F10
A   25
CL11
A   26
N12
A   27
N14
A   28
O15
A   29
C23
A   30
N26
A   31
C29
A   32
O32
M  END
>  <Id>  (9) 
3HEG_BAX_A_1

>  <ChainId>  (9) 
A

>  <AsymId>  (9) 
B

>  <SeqNum>  (9) 
1

>  <Name>  (9) 
4-{4-[({[4-CHLORO-3-(TRIFLUOROMETHYL)PHENYL]AMINO}CARBONYL)AMINO]PHENOXY}-N-METHYLPYRIDINE-2-CARBOXAMIDE

>  <SystematicName>  (9) 
4-[4-[[4-chloro-3-(trifluoromethyl)phenyl]carbamoylamino]phenoxy]-N-methyl-pyridine-2-carboxamide

>  <Synonyms>  (9) 
Sorafenib

>  <Type>  (9) 
NON-POLYMER

>  <Formula>  (9) 
C21 H16 Cl F3 N4 O3

>  <ObservedFormula>  (9) 
C21 F3 Cl N4 O3

>  <MolecularWeight>  (9) 
464.825

>  <ModifiedDate>  (9) 
2012-09-20

>  <Parent>  (9) 


>  <OneLetterCode>  (9) 


>  <SubcomponentList>  (9) 


>  <AmbiguousFlag>  (9) 
N

>  <InsertionCode>  (9) 


>  <InstanceId>  (9) 
3HEG_BAX_A_1

>  <ChemCompId>  (9) 
BAX

>  <PdbId>  (9) 
3HEG

>  <ResidueNumber>  (9) 
1

>  <InChI>  (9) 
InChI=1S/C21H16ClF3N4O3/c1-26-19(30)18-11-15(8-9-27-18)32-14-5-2-12(3-6-14)28-20(31)29-13-4-7-17(22)16(10-13)21(23,24)25/h2-11H,1H3,(H,26,30)(H2,28,29,31)

>  <InChIKey>  (9) 
MLDQJTXFUGDVEO-UHFFFAOYSA-N

>  <SMILES>  (9) 
CNC(=O)c1cc(ccn1)Oc2ccc(cc2)NC(=O)Nc3ccc(c(c3)C(F)(F)F)Cl

>  <MissingHeavyAtoms>  (9) 
0

>  <Model>  (9) 
1

>  <AltIds>  (9) 


>  <pKI>  (9) 
7.8

>  <ChemblID>  (9) 
CHEMBL1336

>  <standardized_canonical_smiles>  (9) 
CNC(=O)c1cc(Oc2ccc(NC(=O)Nc3ccc(Cl)c(C(F)(F)F)c3)cc2)ccn1

$$$$
3GCS_BAX_A_401
     RDKit          3D

 32 34  0  0  0  0  0  0  0  0999 V2000
  -16.3690   -7.3230   17.9900 C   0  0  0  0  0  0  0  0  0  0  0  0
  -17.1540   -7.0030   16.8680 C   0  0  0  0  0  0  0  0  0  0  0  0
  -16.6900   -7.3370   15.5950 C   0  0  0  0  0  0  0  0  0  0  0  0
  -15.4600   -7.9590   15.4230 C   0  0  0  0  0  0  0  0  0  0  0  0
  -18.7080   -5.4950   17.9310 C   0  0  0  0  0  0  0  0  0  0  0  0
  -20.5500   -4.1300   18.6720 C   0  0  0  0  0  0  0  0  0  0  0  0
  -19.8220   -3.1080   19.2760 C   0  0  0  0  0  0  0  0  0  0  0  0
  -20.4350   -2.1950   20.1410 C   0  0  0  0  0  0  0  0  0  0  0  0
  -21.8190   -2.2870   20.3470 C   0  0  0  0  0  0  0  0  0  0  0  0
  -22.5540   -3.2970   19.7490 C   0  0  0  0  0  0  0  0  0  0  0  0
  -21.9300   -4.2150   18.9150 C   0  0  0  0  0  0  0  0  0  0  0  0
  -22.4910   -1.4470   21.2080 O   0  0  0  0  0  0  0  0  0  0  0  0
  -22.1850    0.5610   19.9760 C   0  0  0  0  0  0  0  0  0  0  0  0
  -22.0690    1.9530   20.0280 C   0  0  0  0  0  0  0  0  0  0  0  0
  -22.2950    1.9430   22.3740 C   0  0  0  0  0  0  0  0  0  0  0  0
  -22.4250    0.5550   22.3790 C   0  0  0  0  0  0  0  0  0  0  0  0
  -22.3710    4.0680   23.5530 N   0  0  0  0  0  0  0  0  0  0  0  0
  -22.4200    4.8910   24.7720 C   0  0  0  0  0  0  0  0  0  0  0  0
  -14.6740   -8.2420   16.5630 C   0  0  0  0  0  0  0  0  0  0  0  0
  -15.1120   -7.9330   17.8450 C   0  0  0  0  0  0  0  0  0  0  0  0
  -14.2580   -8.2750   19.0990 C   0  0  0  0  0  0  0  0  0  0  0  0
  -14.9290   -7.8860   20.1380 F   0  0  0  0  0  0  0  0  0  0  0  0
  -14.0260   -9.5830   19.2090 F   0  0  0  0  0  0  0  0  0  0  0  0
  -13.1090   -7.6340   19.1850 F   0  0  0  0  0  0  0  0  0  0  0  0
  -13.1510   -9.0000   16.3780 Cl  0  0  0  0  0  0  0  0  0  0  0  0
  -18.3750   -6.4010   16.9870 N   0  0  0  0  0  0  0  0  0  0  0  0
  -19.9700   -5.0250   17.8550 N   0  0  0  0  0  0  0  0  0  0  0  0
  -17.9230   -5.1310   18.8240 O   0  0  0  0  0  0  0  0  0  0  0  0
  -22.3470   -0.1230   21.1720 C   0  0  0  0  0  0  0  0  0  0  0  0
  -22.1190    2.5800   21.2000 N   0  0  0  0  0  0  0  0  0  0  0  0
  -22.3510    2.7400   23.6900 C   0  0  0  0  0  0  0  0  0  0  0  0
  -22.3790    2.1590   24.7710 O   0  0  0  0  0  0  0  0  0  0  0  0
  2  1  2  0
 20  1  1  0
  3  2  1  0
 26  2  1  0
  4  3  2  0
 19  4  1  0
 26  5  1  0
 27  5  1  0
 28  5  2  0
  7  6  2  0
 11  6  1  0
 27  6  1  0
  8  7  1  0
  9  8  2  0
 10  9  1  0
 12  9  1  0
 11 10  2  0
 29 12  1  0
 14 13  2  0
 29 13  1  0
 30 14  1  0
 16 15  1  0
 30 15  2  0
 31 15  1  0
 29 16  2  0
 18 17  1  0
 31 17  1  0
 20 19  2  0
 25 19  1  0
 21 20  1  0
 22 21  1  0
 23 21  1  0
 24 21  1  0
 32 31  2  0
A    1
C1
A    2
C2
A    3
C3
A    4
C4
A    5
C13
A    6
C16
A    7
C17
A    8
C18
A    9
C19
A   10
C20
A   11
C21
A   12
O22
A   13
C24
A   14
C25
A   15
C27
A   16
C28
A   17
N30
A   18
C31
A   19
C5
A   20
C6
A   21
C7
A   22
F8
A   23
F9
A   24
F10
A   25
CL11
A   26
N12
A   27
N14
A   28
O15
A   29
C23
A   30
N26
A   31
C29
A   32
O32
M  END
>  <Id>  (10) 
3GCS_BAX_A_401

>  <ChainId>  (10) 
A

>  <AsymId>  (10) 
B

>  <SeqNum>  (10) 
401

>  <Name>  (10) 
4-{4-[({[4-CHLORO-3-(TRIFLUOROMETHYL)PHENYL]AMINO}CARBONYL)AMINO]PHENOXY}-N-METHYLPYRIDINE-2-CARBOXAMIDE

>  <SystematicName>  (10) 
4-[4-[[4-chloro-3-(trifluoromethyl)phenyl]carbamoylamino]phenoxy]-N-methyl-pyridine-2-carboxamide

>  <Synonyms>  (10) 
Sorafenib

>  <Type>  (10) 
NON-POLYMER

>  <Formula>  (10) 
C21 H16 Cl F3 N4 O3

>  <ObservedFormula>  (10) 
C21 F3 Cl N4 O3

>  <MolecularWeight>  (10) 
464.825

>  <ModifiedDate>  (10) 
2012-09-20

>  <Parent>  (10) 


>  <OneLetterCode>  (10) 


>  <SubcomponentList>  (10) 


>  <AmbiguousFlag>  (10) 
N

>  <InsertionCode>  (10) 


>  <InstanceId>  (10) 
3GCS_BAX_A_401

>  <ChemCompId>  (10) 
BAX

>  <PdbId>  (10) 
3GCS

>  <ResidueNumber>  (10) 
401

>  <InChI>  (10) 
InChI=1S/C21H16ClF3N4O3/c1-26-19(30)18-11-15(8-9-27-18)32-14-5-2-12(3-6-14)28-20(31)29-13-4-7-17(22)16(10-13)21(23,24)25/h2-11H,1H3,(H,26,30)(H2,28,29,31)

>  <InChIKey>  (10) 
MLDQJTXFUGDVEO-UHFFFAOYSA-N

>  <SMILES>  (10) 
CNC(=O)c1cc(ccn1)Oc2ccc(cc2)NC(=O)Nc3ccc(c(c3)C(F)(F)F)Cl

>  <MissingHeavyAtoms>  (10) 
0

>  <Model>  (10) 
1

>  <AltIds>  (10) 


>  <pKI>  (10) 
7.8

>  <ChemblID>  (10) 
CHEMBL1336

>  <standardized_canonical_smiles>  (10) 
CNC(=O)c1cc(Oc2ccc(NC(=O)Nc3ccc(Cl)c(C(F)(F)F)c3)cc2)ccn1

$$$$
2ZB1_GK4_A_361
     RDKit          3D

 26 29  0  0  0  0  0  0  0  0999 V2000
   45.7200   34.8960   32.5820 O   0  0  0  0  0  0  0  0  0  0  0  0
   45.7430   33.7180   32.1950 C   0  0  0  0  0  0  0  0  0  0  0  0
   46.9130   33.0920   31.9880 N   0  0  0  0  0  0  0  0  0  0  0  0
   48.1540   33.8290   32.1750 C   0  0  0  0  0  0  0  0  0  0  0  0
   49.2800   33.1550   31.4260 C   0  0  0  0  0  0  0  0  0  0  0  0
   49.2780   33.6720   29.9930 C   0  0  0  0  0  0  0  0  0  0  0  0
   50.2910   34.2050   31.0040 C   0  0  0  0  0  0  0  0  0  0  0  0
   44.4420   32.9440   32.0480 C   0  0  0  0  0  0  0  0  0  0  0  0
   44.4170   31.5670   31.7720 C   0  0  0  0  0  0  0  0  0  0  0  0
   43.2070   30.8760   31.6830 C   0  0  0  0  0  0  0  0  0  0  0  0
   43.2340   33.6040   32.2620 C   0  0  0  0  0  0  0  0  0  0  0  0
   42.0360   32.9150   32.1840 C   0  0  0  0  0  0  0  0  0  0  0  0
   42.0000   31.5660   31.8690 C   0  0  0  0  0  0  0  0  0  0  0  0
   40.7560   30.9350   31.8330 C   0  0  0  0  0  0  0  0  0  0  0  0
   39.7590   31.1380   30.8780 C   0  0  0  0  0  0  0  0  0  0  0  0
   39.9510   32.0670   29.7180 C   0  0  0  0  0  0  0  0  0  0  0  0
   38.5430   30.4580   30.9870 C   0  0  0  0  0  0  0  0  0  0  0  0
   38.3010   29.5920   32.0460 C   0  0  0  0  0  0  0  0  0  0  0  0
   40.4930   30.0690   32.8940 C   0  0  0  0  0  0  0  0  0  0  0  0
   39.2910   29.3860   33.0070 C   0  0  0  0  0  0  0  0  0  0  0  0
   39.1150   28.5320   34.1010 C   0  0  0  0  0  0  0  0  0  0  0  0
   40.0380   28.3150   35.0720 N   0  0  0  0  0  0  0  0  0  0  0  0
   39.4920   27.4050   35.9820 N   0  0  0  0  0  0  0  0  0  0  0  0
   38.0990   27.8400   34.3740 O   0  0  0  0  0  0  0  0  0  0  0  0
   38.2920   27.1830   35.4370 C   0  0  0  0  0  0  0  0  0  0  0  0
   37.1470   26.3110   35.8800 C   0  0  0  0  0  0  0  0  0  0  0  0
  2  1  2  0
  3  2  1  0
  8  2  1  0
  4  3  1  0
  5  4  1  0
  6  5  1  0
  7  5  1  0
  7  6  1  0
  9  8  2  0
 11  8  1  0
 10  9  1  0
 13 10  2  0
 12 11  2  0
 13 12  1  0
 14 13  1  0
 15 14  2  0
 19 14  1  0
 16 15  1  0
 17 15  1  0
 18 17  2  0
 20 18  1  0
 20 19  2  0
 21 20  1  0
 22 21  2  0
 24 21  1  0
 23 22  1  0
 25 23  2  0
 25 24  1  0
 26 25  1  0
A    1
O2
A    2
C17
A    3
N3
A    4
C18
A    5
C19
A    6
C21
A    7
C20
A    8
C14
A    9
C13
A   10
C12
A   11
C15
A   12
C16
A   13
C11
A   14
C9
A   15
C7
A   16
C8
A   17
C6
A   18
C5
A   19
C10
A   20
C4
A   21
C3
A   22
N2
A   23
N1
A   24
O1
A   25
C2
A   26
C1
M  END
>  <Id>  (11) 
2ZB1_GK4_A_361

>  <ChainId>  (11) 
A

>  <AsymId>  (11) 
B

>  <SeqNum>  (11) 
361

>  <Name>  (11) 
N-(cyclopropylmethyl)-2'-methyl-5'-(5-methyl-1,3,4-oxadiazol-2-yl)biphenyl-4-carboxamide

>  <SystematicName>  (11) 
N-(cyclopropylmethyl)-4-[2-methyl-5-(5-methyl-1,3,4-oxadiazol-2-yl)phenyl]benzamide

>  <Synonyms>  (11) 


>  <Type>  (11) 
NON-POLYMER

>  <Formula>  (11) 
C21 H21 N3 O2

>  <ObservedFormula>  (11) 
C21 N3 O2

>  <MolecularWeight>  (11) 
347.41

>  <ModifiedDate>  (11) 
2011-06-04

>  <Parent>  (11) 


>  <OneLetterCode>  (11) 


>  <SubcomponentList>  (11) 


>  <AmbiguousFlag>  (11) 
N

>  <InsertionCode>  (11) 


>  <InstanceId>  (11) 
2ZB1_GK4_A_361

>  <ChemCompId>  (11) 
GK4

>  <PdbId>  (11) 
2ZB1

>  <ResidueNumber>  (11) 
361

>  <InChI>  (11) 
InChI=1S/C21H21N3O2/c1-13-3-6-18(21-24-23-14(2)26-21)11-19(13)16-7-9-17(10-8-16)20(25)22-12-15-4-5-15/h3,6-11,15H,4-5,12H2,1-2H3,(H,22,25)

>  <InChIKey>  (11) 
FOHZGCHKLPIBBX-UHFFFAOYSA-N

>  <SMILES>  (11) 
Cc1ccc(cc1c2ccc(cc2)C(=O)NCC3CC3)c4nnc(o4)C

>  <MissingHeavyAtoms>  (11) 
0

>  <Model>  (11) 
1

>  <AltIds>  (11) 


>  <pKI>  (11) 
6.32

>  <ChemblID>  (11) 
CHEMBL273158

>  <standardized_canonical_smiles>  (11) 
Cc1nnc(-c2ccc(C)c(-c3ccc(C(=O)NCC4CC4)cc3)c2)o1

$$$$
2ZB0_GK3_A_361
     RDKit          3D

 30 33  0  0  0  0  0  0  0  0999 V2000
   48.8280   37.7680   26.1990 N   0  0  0  0  0  0  0  0  0  0  0  0
   48.8270   36.5420   26.7180 C   0  0  0  0  0  0  0  0  0  0  0  0
   48.8050   35.1770   27.3020 C   0  0  0  0  0  0  0  0  0  0  0  0
   49.9450   34.3550   27.2360 C   0  0  0  0  0  0  0  0  0  0  0  0
   49.9010   33.0740   27.7910 C   0  0  0  0  0  0  0  0  0  0  0  0
   48.7190   32.6180   28.4020 C   0  0  0  0  0  0  0  0  0  0  0  0
   47.6260   34.7170   27.9190 C   0  0  0  0  0  0  0  0  0  0  0  0
   47.5690   33.4340   28.4860 C   0  0  0  0  0  0  0  0  0  0  0  0
   46.4430   32.9380   29.0880 N   0  0  0  0  0  0  0  0  0  0  0  0
   45.5340   33.6050   29.8330 C   0  0  0  0  0  0  0  0  0  0  0  0
   45.5840   34.9200   30.0670 O   0  0  0  0  0  0  0  0  0  0  0  0
   44.3250   32.8600   30.3680 C   0  0  0  0  0  0  0  0  0  0  0  0
   44.0670   31.5650   29.9120 C   0  0  0  0  0  0  0  0  0  0  0  0
   43.4430   33.4670   31.2770 C   0  0  0  0  0  0  0  0  0  0  0  0
   42.3180   32.7820   31.7420 C   0  0  0  0  0  0  0  0  0  0  0  0
   42.0780   31.4700   31.2990 C   0  0  0  0  0  0  0  0  0  0  0  0
   42.9480   30.8750   30.3710 C   0  0  0  0  0  0  0  0  0  0  0  0
   40.9290   30.7640   31.6750 C   0  0  0  0  0  0  0  0  0  0  0  0
   40.9170   29.8050   32.6880 C   0  0  0  0  0  0  0  0  0  0  0  0
   39.7100   29.1600   32.9570 C   0  0  0  0  0  0  0  0  0  0  0  0
   39.5280   28.1850   34.0660 C   0  0  0  0  0  0  0  0  0  0  0  0
   38.7310   27.2210   34.1440 O   0  0  0  0  0  0  0  0  0  0  0  0
   38.9620   26.7500   35.2680 C   0  0  0  0  0  0  0  0  0  0  0  0
   38.2060   25.5580   35.7720 C   0  0  0  0  0  0  0  0  0  0  0  0
   39.9080   27.3760   35.9760 N   0  0  0  0  0  0  0  0  0  0  0  0
   40.2930   28.3390   35.1660 N   0  0  0  0  0  0  0  0  0  0  0  0
   38.5450   29.4450   32.2370 C   0  0  0  0  0  0  0  0  0  0  0  0
   38.5510   30.3790   31.2280 C   0  0  0  0  0  0  0  0  0  0  0  0
   39.7410   31.0350   30.9400 C   0  0  0  0  0  0  0  0  0  0  0  0
   39.6660   32.0470   29.8220 C   0  0  0  0  0  0  0  0  0  0  0  0
  2  1  3  0
  3  2  1  0
  4  3  2  0
  7  3  1  0
  5  4  1  0
  6  5  2  0
  8  6  1  0
  8  7  2  0
  9  8  1  0
 10  9  1  0
 11 10  2  0
 12 10  1  0
 13 12  2  0
 14 12  1  0
 17 13  1  0
 15 14  2  0
 16 15  1  0
 17 16  2  0
 18 16  1  0
 19 18  2  0
 29 18  1  0
 20 19  1  0
 21 20  1  0
 27 20  2  0
 22 21  1  0
 26 21  2  0
 23 22  1  0
 24 23  1  0
 25 23  2  0
 26 25  1  0
 28 27  1  0
 29 28  2  0
 30 29  1  0
A    1
N5
A    2
C5
A    3
C18
A    4
C2
A    5
C29
A    6
C19
A    7
C22
A    8
C15
A    9
N3
A   10
C3
A   11
O1
A   12
C25
A   13
C9
A   14
C10
A   15
C16
A   16
C13
A   17
C27
A   18
C28
A   19
C14
A   20
C17
A   21
C12
A   22
O2
A   23
C7
A   24
C21
A   25
N4
A   26
N7
A   27
C20
A   28
C26
A   29
C23
A   30
C1
M  END
>  <Id>  (12) 
2ZB0_GK3_A_361

>  <ChainId>  (12) 
A

>  <AsymId>  (12) 
B

>  <SeqNum>  (12) 
361

>  <Name>  (12) 
N-(3-cyanophenyl)-2'-methyl-5'-(5-methyl-1,3,4-oxadiazol-2-yl)-4-biphenylcarboxamide

>  <SystematicName>  (12) 
N-(3-cyanophenyl)-4-[2-methyl-5-(5-methyl-1,3,4-oxadiazol-2-yl)phenyl]benzamide

>  <Synonyms>  (12) 


>  <Type>  (12) 
NON-POLYMER

>  <Formula>  (12) 
C24 H18 N4 O2

>  <ObservedFormula>  (12) 
C24 N4 O2

>  <MolecularWeight>  (12) 
394.425

>  <ModifiedDate>  (12) 
2011-06-04

>  <Parent>  (12) 


>  <OneLetterCode>  (12) 


>  <SubcomponentList>  (12) 


>  <AmbiguousFlag>  (12) 
N

>  <InsertionCode>  (12) 


>  <InstanceId>  (12) 
2ZB0_GK3_A_361

>  <ChemCompId>  (12) 
GK3

>  <PdbId>  (12) 
2ZB0

>  <ResidueNumber>  (12) 
361

>  <InChI>  (12) 
InChI=1S/C24H18N4O2/c1-15-6-7-20(24-28-27-16(2)30-24)13-22(15)18-8-10-19(11-9-18)23(29)26-21-5-3-4-17(12-21)14-25/h3-13H,1-2H3,(H,26,29)

>  <InChIKey>  (12) 
PMMLSQFPBFKLHH-UHFFFAOYSA-N

>  <SMILES>  (12) 
Cc1ccc(cc1c2ccc(cc2)C(=O)Nc3cccc(c3)C#N)c4nnc(o4)C

>  <MissingHeavyAtoms>  (12) 
0

>  <Model>  (12) 
1

>  <AltIds>  (12) 


>  <pKI>  (12) 
6.62

>  <ChemblID>  (12) 
CHEMBL270164

>  <standardized_canonical_smiles>  (12) 
Cc1nnc(-c2ccc(C)c(-c3ccc(C(=O)Nc4cccc(C#N)c4)cc3)c2)o1

$$$$
2ZAZ_GK1_A_362
     RDKit          3D

 26 29  0  0  0  0  0  0  0  0999 V2000
   49.3680   37.8820   27.0200 O   0  0  0  0  0  0  0  0  0  0  0  0
   50.1020   36.8910   27.0670 C   0  0  0  0  0  0  0  0  0  0  0  0
   49.5180   35.5620   27.3840 C   0  0  0  0  0  0  0  0  0  0  0  0
   50.2330   33.9970   26.9910 S   0  0  0  0  0  0  0  0  0  0  0  0
   48.8620   33.1110   27.7030 C   0  0  0  0  0  0  0  0  0  0  0  0
   48.3400   35.4040   28.0110 N   0  0  0  0  0  0  0  0  0  0  0  0
   47.9570   34.0830   28.1830 C   0  0  0  0  0  0  0  0  0  0  0  0
   46.7750   33.7320   28.8360 C   0  0  0  0  0  0  0  0  0  0  0  0
   46.2280   34.6450   29.7290 C   0  0  0  0  0  0  0  0  0  0  0  0
   46.1720   32.4940   28.6220 C   0  0  0  0  0  0  0  0  0  0  0  0
   44.9950   32.1990   29.3200 C   0  0  0  0  0  0  0  0  0  0  0  0
   44.4430   33.1180   30.2250 C   0  0  0  0  0  0  0  0  0  0  0  0
   45.0610   34.3530   30.4300 C   0  0  0  0  0  0  0  0  0  0  0  0
   44.5430   35.2660   31.2940 N   0  0  0  0  0  0  0  0  0  0  0  0
   43.4200   34.9990   31.9880 C   0  0  0  0  0  0  0  0  0  0  0  0
   42.7700   33.7810   31.8200 C   0  0  0  0  0  0  0  0  0  0  0  0
   43.2770   32.8240   30.9390 C   0  0  0  0  0  0  0  0  0  0  0  0
   42.6560   31.6210   30.7410 N   0  0  0  0  0  0  0  0  0  0  0  0
   41.5420   31.2130   31.4230 C   0  0  0  0  0  0  0  0  0  0  0  0
   40.2650   31.5900   30.9830 C   0  0  0  0  0  0  0  0  0  0  0  0
   40.0780   32.4540   29.7580 C   0  0  0  0  0  0  0  0  0  0  0  0
   41.6840   30.4070   32.5770 C   0  0  0  0  0  0  0  0  0  0  0  0
   40.5430   29.9810   33.2800 C   0  0  0  0  0  0  0  0  0  0  0  0
   40.6600   29.2120   34.4090 O   0  0  0  0  0  0  0  0  0  0  0  0
   39.2700   30.3630   32.8240 C   0  0  0  0  0  0  0  0  0  0  0  0
   39.1400   31.1510   31.6800 C   0  0  0  0  0  0  0  0  0  0  0  0
  2  1  2  0
  3  2  1  0
  4  3  1  0
  6  3  2  0
  5  4  1  0
  7  5  2  0
  7  6  1  0
  8  7  1  0
  9  8  2  0
 10  8  1  0
 13  9  1  0
 11 10  2  0
 12 11  1  0
 13 12  2  0
 17 12  1  0
 14 13  1  0
 15 14  2  0
 16 15  1  0
 17 16  2  0
 18 17  1  0
 19 18  1  0
 20 19  2  0
 22 19  1  0
 21 20  1  0
 26 20  1  0
 23 22  2  0
 24 23  1  0
 25 23  1  0
 26 25  2  0
A    1
O2
A    2
C20
A    3
C19
A    4
S
A    5
C18
A    6
N3
A    7
C17
A    8
C13
A    9
C12
A   10
C14
A   11
C15
A   12
C16
A   13
C11
A   14
N2
A   15
C10
A   16
C9
A   17
C8
A   18
N1
A   19
C7
A   20
C2
A   21
C1
A   22
C6
A   23
C5
A   24
O1
A   25
C4
A   26
C3
M  END
>  <Id>  (13) 
2ZAZ_GK1_A_362

>  <ChainId>  (13) 
A

>  <AsymId>  (13) 
C

>  <SeqNum>  (13) 
362

>  <Name>  (13) 
4-{4-[(5-hydroxy-2-methylphenyl)amino]quinolin-7-yl}-1,3-thiazole-2-carbaldehyde

>  <SystematicName>  (13) 
4-[4-[(5-hydroxy-2-methyl-phenyl)amino]quinolin-7-yl]-1,3-thiazole-2-carbaldehyde

>  <Synonyms>  (13) 


>  <Type>  (13) 
NON-POLYMER

>  <Formula>  (13) 
C20 H15 N3 O2 S

>  <ObservedFormula>  (13) 
C20 S N3 O2

>  <MolecularWeight>  (13) 
361.417

>  <ModifiedDate>  (13) 
2011-06-04

>  <Parent>  (13) 


>  <OneLetterCode>  (13) 


>  <SubcomponentList>  (13) 


>  <AmbiguousFlag>  (13) 
N

>  <InsertionCode>  (13) 


>  <InstanceId>  (13) 
2ZAZ_GK1_A_362

>  <ChemCompId>  (13) 
GK1

>  <PdbId>  (13) 
2ZAZ

>  <ResidueNumber>  (13) 
362

>  <InChI>  (13) 
InChI=1S/C20H15N3O2S/c1-12-2-4-14(25)9-17(12)22-16-6-7-21-18-8-13(3-5-15(16)18)19-11-26-20(10-24)23-19/h2-11,25H,1H3,(H,21,22)

>  <InChIKey>  (13) 
VKQPTVJDZIILPG-UHFFFAOYSA-N

>  <SMILES>  (13) 
Cc1ccc(cc1Nc2ccnc3c2ccc(c3)c4csc(n4)C=O)O

>  <MissingHeavyAtoms>  (13) 
0

>  <Model>  (13) 
1

>  <AltIds>  (13) 


>  <pKI>  (13) 
6.4

>  <ChemblID>  (13) 
CHEMBL237127

>  <standardized_canonical_smiles>  (13) 
Cc1ccc(O)cc1Nc1ccnc2cc(-c3csc(C=O)n3)ccc12

$$$$
3BV3_P39_A_501
     RDKit          3D

 44 49  0  0  0  0  0  0  0  0999 V2000
   -3.1210   42.0110   10.5780 C   0  0  0  0  0  0  0  0  0  0  0  0
   -2.0570   42.0580   11.5180 C   0  0  0  0  0  0  0  0  0  0  0  0
   -1.7050   40.7680   12.0830 C   0  0  0  0  0  0  0  0  0  0  0  0
    0.5810   40.5540   12.1950 C   0  0  0  0  0  0  0  0  0  0  0  0
   -3.7780   40.7700   10.2400 C   0  0  0  0  0  0  0  0  0  0  0  0
   -3.4320   39.5250   10.8110 C   0  0  0  0  0  0  0  0  0  0  0  0
   -2.3860   39.5570   11.7340 C   0  0  0  0  0  0  0  0  0  0  0  0
   -3.3010   36.5990   21.1500 C   0  0  0  0  0  0  0  0  0  0  0  0
   -4.6660   36.6370   21.4480 C   0  0  0  0  0  0  0  0  0  0  0  0
   -1.3300   39.8620   15.0570 C   0  0  0  0  0  0  0  0  0  0  0  0
    1.6060   34.9550   25.4500 C   0  0  0  0  0  0  0  0  0  0  0  0
   -2.7630   35.1910   23.1740 C   0  0  0  0  0  0  0  0  0  0  0  0
    0.3770   34.2810   25.0320 C   0  0  0  0  0  0  0  0  0  0  0  0
   -1.7780   36.5650   16.5530 N   0  0  0  0  0  0  0  0  0  0  0  0
   -1.8320   35.2570   16.7080 N   0  0  0  0  0  0  0  0  0  0  0  0
   -2.2080   34.6090   17.8390 C   0  0  0  0  0  0  0  0  0  0  0  0
   -2.5160   35.3560   18.9560 N   0  0  0  0  0  0  0  0  0  0  0  0
   -2.4580   36.6280   18.8230 C   0  0  0  0  0  0  0  0  0  0  0  0
   -2.0820   37.3640   17.6620 C   0  0  0  0  0  0  0  0  0  0  0  0
   -1.9240   38.7700   17.3470 C   0  0  0  0  0  0  0  0  0  0  0  0
   -1.5390   38.7350   15.9400 C   0  0  0  0  0  0  0  0  0  0  0  0
   -1.4600   37.3440   15.5180 C   0  0  0  0  0  0  0  0  0  0  0  0
   -2.1680   40.0650   18.2810 C   0  0  0  0  0  0  0  0  0  0  0  0
   -1.5330   41.0780   15.3650 O   0  0  0  0  0  0  0  0  0  0  0  0
   -1.0070   39.5390   13.8130 N   0  0  0  0  0  0  0  0  0  0  0  0
   -0.6260   40.6740   13.0510 C   0  0  0  0  0  0  0  0  0  0  0  0
   -2.8140   37.2500   20.0220 N   0  0  0  0  0  0  0  0  0  0  0  0
   -5.0760   35.9430   22.6320 C   0  0  0  0  0  0  0  0  0  0  0  0
   -4.1700   35.2330   23.4870 C   0  0  0  0  0  0  0  0  0  0  0  0
   -2.4340   35.9090   21.9750 C   0  0  0  0  0  0  0  0  0  0  0  0
   -5.6490   37.3630   20.5470 C   0  0  0  0  0  0  0  0  0  0  0  0
   -1.8860   34.5260   24.0210 N   0  0  0  0  0  0  0  0  0  0  0  0
   -0.6110   34.9410   24.0770 C   0  0  0  0  0  0  0  0  0  0  0  0
   -0.0920   35.7840   23.3280 O   0  0  0  0  0  0  0  0  0  0  0  0
    2.4440   34.3440   26.3030 C   0  0  0  0  0  0  0  0  0  0  0  0
    2.0730   33.1370   26.7000 C   0  0  0  0  0  0  0  0  0  0  0  0
    1.0180   32.4280   26.3940 C   0  0  0  0  0  0  0  0  0  0  0  0
    0.1450   32.9960   25.5360 C   0  0  0  0  0  0  0  0  0  0  0  0
    3.6130   34.8840   26.7000 N   0  0  0  0  0  0  0  0  0  0  0  0
    3.8250   36.2370   26.3570 C   0  0  0  0  0  0  0  0  0  0  0  0
    5.2620   36.6910   26.7640 C   0  0  0  0  0  0  0  0  0  0  0  0
    6.0890   35.8790   27.5880 O   0  0  0  0  0  0  0  0  0  0  0  0
    5.5030   34.9030   28.4070 C   0  0  0  0  0  0  0  0  0  0  0  0
    4.6850   34.0590   27.3560 C   0  0  0  0  0  0  0  0  0  0  0  0
  2  1  2  0
  5  1  1  0
  3  2  1  0
  7  3  2  0
 26  3  1  0
 26  4  1  0
  6  5  2  0
  7  6  1  0
  9  8  2  0
 27  8  1  0
 30  8  1  0
 28  9  1  0
 31  9  1  0
 21 10  1  0
 24 10  2  0
 25 10  1  0
 13 11  2  0
 35 11  1  0
 29 12  1  0
 30 12  2  0
 32 12  1  0
 33 13  1  0
 38 13  1  0
 15 14  1  0
 19 14  1  0
 22 14  1  0
 16 15  2  0
 17 16  1  0
 18 17  2  0
 19 18  1  0
 27 18  1  0
 20 19  2  0
 21 20  1  0
 23 20  1  0
 22 21  2  0
 26 25  1  0
 29 28  2  0
 33 32  1  0
 34 33  2  0
 36 35  2  0
 39 35  1  0
 37 36  1  0
 38 37  2  0
 40 39  1  0
 44 39  1  0
 41 40  1  0
 42 41  1  0
 43 42  1  0
 44 43  1  0
A    1
C18
A    2
C17
A    3
C16
A    4
C15
A    5
C19
A    6
C20
A    7
C21
A    8
C23
A    9
C24
A   10
C11
A   11
C34
A   12
C27
A   13
C33
A   14
N1
A   15
N2
A   16
C3
A   17
N4
A   18
C5
A   19
C6
A   20
C7
A   21
C8
A   22
C9
A   23
C10
A   24
O12
A   25
N13
A   26
C14
A   27
N22
A   28
C25
A   29
C26
A   30
C28
A   31
C29
A   32
N30
A   33
C31
A   34
O32
A   35
C35
A   36
C36
A   37
C37
A   38
C38
A   39
N39
A   40
C40
A   41
C41
A   42
O42
A   43
C43
A   44
C44
M  END
>  <Id>  (14) 
3BV3_P39_A_501

>  <ChainId>  (14) 
A

>  <AsymId>  (14) 
B

>  <SeqNum>  (14) 
501

>  <Name>  (14) 
5-methyl-4-[(2-methyl-5-{[(3-morpholin-4-ylphenyl)carbonyl]amino}phenyl)amino]-N-[(1S)-1-phenylethyl]pyrrolo[2,1-f][1,2,4]triazine-6-carboxamide

>  <SystematicName>  (14) 
5-methyl-4-[[2-methyl-5-[(3-morpholin-4-ylphenyl)carbonylamino]phenyl]amino]-N-[(1S)-1-phenylethyl]pyrrolo[5,1-f][1,2,4]triazine-6-carboxamide

>  <Synonyms>  (14) 


>  <Type>  (14) 
NON-POLYMER

>  <Formula>  (14) 
C34 H35 N7 O3

>  <ObservedFormula>  (14) 
C34 N7 O3

>  <MolecularWeight>  (14) 
589.687

>  <ModifiedDate>  (14) 
2011-06-04

>  <Parent>  (14) 


>  <OneLetterCode>  (14) 


>  <SubcomponentList>  (14) 


>  <AmbiguousFlag>  (14) 
N

>  <InsertionCode>  (14) 


>  <InstanceId>  (14) 
3BV3_P39_A_501

>  <ChemCompId>  (14) 
P39

>  <PdbId>  (14) 
3BV3

>  <ResidueNumber>  (14) 
501

>  <InChI>  (14) 
InChI=1S/C34H35N7O3/c1-22-12-13-27(38-33(42)26-10-7-11-28(18-26)40-14-16-44-17-15-40)19-30(22)39-32-31-23(2)29(20-41(31)36-21-35-32)34(43)37-24(3)25-8-5-4-6-9-25/h4-13,18-21,24H,14-17H2,1-3H3,(H,37,43)(H,38,42)(H,35,36,39)/t24-/m0/s1

>  <InChIKey>  (14) 
KYFKCMGDXJZZIZ-DEOSSOPVSA-N

>  <SMILES>  (14) 
Cc1ccc(cc1Nc2c3c(c(cn3ncn2)C(=O)N[C@@H](C)c4ccccc4)C)NC(=O)c5cccc(c5)N6CCOCC6

>  <MissingHeavyAtoms>  (14) 
0

>  <Model>  (14) 
1

>  <AltIds>  (14) 


>  <pKI>  (14) 
9.34

>  <ChemblID>  (14) 
CHEMBL408150

>  <standardized_canonical_smiles>  (14) 
Cc1ccc(NC(=O)c2cccc(N3CCOCC3)c2)cc1Nc1ncnn2cc(C(=O)N[C@@H](C)c3ccccc3)c(C)c12

$$$$
3D83_GK6_A_401
     RDKit          3D

 35 39  0  0  0  0  0  0  0  0999 V2000
   46.2930   34.8180   30.9770 O   0  0  0  0  0  0  0  0  0  0  0  0
   46.0010   33.6850   30.5740 C   0  0  0  0  0  0  0  0  0  0  0  0
   46.7750   33.0420   29.6770 N   0  0  0  0  0  0  0  0  0  0  0  0
   47.9870   33.6210   29.0970 C   0  0  0  0  0  0  0  0  0  0  0  0
   49.0690   32.5610   28.8470 C   0  0  0  0  0  0  0  0  0  0  0  0
   50.4230   33.1260   29.2810 C   0  0  0  0  0  0  0  0  0  0  0  0
   49.7130   32.0970   30.1540 C   0  0  0  0  0  0  0  0  0  0  0  0
   44.7130   33.0050   31.0550 C   0  0  0  0  0  0  0  0  0  0  0  0
   44.3990   31.7120   30.6360 C   0  0  0  0  0  0  0  0  0  0  0  0
   43.2190   31.0710   31.0750 C   0  0  0  0  0  0  0  0  0  0  0  0
   43.8320   33.6670   31.9150 C   0  0  0  0  0  0  0  0  0  0  0  0
   42.6540   33.0280   32.3520 C   0  0  0  0  0  0  0  0  0  0  0  0
   42.3460   31.7220   31.9440 C   0  0  0  0  0  0  0  0  0  0  0  0
   41.1220   31.1280   32.3350 C   0  0  0  0  0  0  0  0  0  0  0  0
   39.9640   31.5260   31.6450 C   0  0  0  0  0  0  0  0  0  0  0  0
   40.0470   32.5660   30.5520 C   0  0  0  0  0  0  0  0  0  0  0  0
   40.9900   30.1500   33.3360 C   0  0  0  0  0  0  0  0  0  0  0  0
   39.7240   29.6130   33.6760 C   0  0  0  0  0  0  0  0  0  0  0  0
   38.5790   30.0370   32.9910 C   0  0  0  0  0  0  0  0  0  0  0  0
   38.7050   30.9950   31.9660 C   0  0  0  0  0  0  0  0  0  0  0  0
   39.5810   28.6850   34.6690 N   0  0  0  0  0  0  0  0  0  0  0  0
   40.2020   28.7100   35.8760 C   0  0  0  0  0  0  0  0  0  0  0  0
   41.1200   29.4700   36.1680 O   0  0  0  0  0  0  0  0  0  0  0  0
   39.7990   27.7130   36.9570 C   0  0  0  0  0  0  0  0  0  0  0  0
   40.1000   27.9850   38.3110 C   0  0  0  0  0  0  0  0  0  0  0  0
   39.7450   27.0410   39.2980 C   0  0  0  0  0  0  0  0  0  0  0  0
   39.1500   25.8840   38.9140 N   0  0  0  0  0  0  0  0  0  0  0  0
   38.8610   25.5970   37.6230 C   0  0  0  0  0  0  0  0  0  0  0  0
   39.1850   26.5000   36.6040 C   0  0  0  0  0  0  0  0  0  0  0  0
   40.0600   27.2770   40.6590 N   0  0  0  0  0  0  0  0  0  0  0  0
   39.9840   26.1460   41.5840 C   0  0  0  0  0  0  0  0  0  0  0  0
   39.8540   26.6370   43.0270 C   0  0  0  0  0  0  0  0  0  0  0  0
   40.7740   27.6980   43.2700 O   0  0  0  0  0  0  0  0  0  0  0  0
   40.3550   28.8400   42.5260 C   0  0  0  0  0  0  0  0  0  0  0  0
   40.5920   28.6050   41.0320 C   0  0  0  0  0  0  0  0  0  0  0  0
  2  1  2  0
  3  2  1  0
  8  2  1  0
  4  3  1  0
  5  4  1  0
  6  5  1  0
  7  5  1  0
  7  6  1  0
  9  8  2  0
 11  8  1  0
 10  9  1  0
 13 10  2  0
 12 11  2  0
 13 12  1  0
 14 13  1  0
 15 14  2  0
 17 14  1  0
 16 15  1  0
 20 15  1  0
 18 17  2  0
 19 18  1  0
 21 18  1  0
 20 19  2  0
 22 21  1  0
 23 22  2  0
 24 22  1  0
 25 24  2  0
 29 24  1  0
 26 25  1  0
 27 26  2  0
 30 26  1  0
 28 27  1  0
 29 28  2  0
 31 30  1  0
 35 30  1  0
 32 31  1  0
 33 32  1  0
 34 33  1  0
 35 34  1  0
A    1
O3
A    2
C24
A    3
N4
A    4
C25
A    5
C26
A    6
C28
A    7
C27
A    8
C21
A    9
C20
A   10
C19
A   11
C22
A   12
C23
A   13
C18
A   14
C17
A   15
C2
A   16
C1
A   17
C16
A   18
C5
A   19
C4
A   20
C3
A   21
N1
A   22
C6
A   23
O1
A   24
C7
A   25
C11
A   26
C10
A   27
N2
A   28
C9
A   29
C8
A   30
N3
A   31
C15
A   32
C14
A   33
O2
A   34
C13
A   35
C12
M  END
>  <Id>  (15) 
3D83_GK6_A_401

>  <ChainId>  (15) 
A

>  <AsymId>  (15) 
B

>  <SeqNum>  (15) 
401

>  <Name>  (15) 
N-{4'-[(cyclopropylmethyl)carbamoyl]-6-methylbiphenyl-3-yl}-2-morpholin-4-ylpyridine-4-carboxamide

>  <SystematicName>  (15) 
N-[3-[4-(cyclopropylmethylcarbamoyl)phenyl]-4-methyl-phenyl]-2-morpholin-4-yl-pyridine-4-carboxamide

>  <Synonyms>  (15) 
N-(4'-{[(cyclopropylmethyl)amino]carbonyl}-6-methyl-3-biphenylyl)-2-(4-morpholinyl)-4-pyridinecarboxamide

>  <Type>  (15) 
NON-POLYMER

>  <Formula>  (15) 
C28 H30 N4 O3

>  <ObservedFormula>  (15) 
C28 N4 O3

>  <MolecularWeight>  (15) 
470.563

>  <ModifiedDate>  (15) 
2011-06-04

>  <Parent>  (15) 


>  <OneLetterCode>  (15) 


>  <SubcomponentList>  (15) 


>  <AmbiguousFlag>  (15) 
N

>  <InsertionCode>  (15) 


>  <InstanceId>  (15) 
3D83_GK6_A_401

>  <ChemCompId>  (15) 
GK6

>  <PdbId>  (15) 
3D83

>  <ResidueNumber>  (15) 
401

>  <InChI>  (15) 
InChI=1S/C28H30N4O3/c1-19-2-9-24(31-28(34)23-10-11-29-26(16-23)32-12-14-35-15-13-32)17-25(19)21-5-7-22(8-6-21)27(33)30-18-20-3-4-20/h2,5-11,16-17,20H,3-4,12-15,18H2,1H3,(H,30,33)(H,31,34)

>  <InChIKey>  (15) 
BOQNSWFZUHQNRG-UHFFFAOYSA-N

>  <SMILES>  (15) 
Cc1ccc(cc1c2ccc(cc2)C(=O)NCC3CC3)NC(=O)c4ccnc(c4)N5CCOCC5

>  <MissingHeavyAtoms>  (15) 
0

>  <Model>  (15) 
1

>  <AltIds>  (15) 


>  <pKI>  (15) 
8.29

>  <ChemblID>  (15) 
CHEMBL476351

>  <standardized_canonical_smiles>  (15) 
Cc1ccc(NC(=O)c2ccnc(N3CCOCC3)c2)cc1-c1ccc(C(=O)NCC2CC2)cc1

$$$$
3D7Z_GK5_A_401
     RDKit          3D

 26 29  0  0  0  0  0  0  0  0999 V2000
   39.6300   32.3090   30.1810 C   0  0  0  0  0  0  0  0  0  0  0  0
   36.9710   26.7190   36.5160 C   0  0  0  0  0  0  0  0  0  0  0  0
   38.0580   27.4050   37.2550 C   0  0  0  0  0  0  0  0  0  0  0  0
   38.3730   26.6660   35.9900 C   0  0  0  0  0  0  0  0  0  0  0  0
   49.0270   33.9270   30.3930 C   0  0  0  0  0  0  0  0  0  0  0  0
   50.1850   34.2140   31.2830 C   0  0  0  0  0  0  0  0  0  0  0  0
   48.8110   34.5300   31.7230 C   0  0  0  0  0  0  0  0  0  0  0  0
   39.5470   31.3350   31.3530 C   0  0  0  0  0  0  0  0  0  0  0  0
   38.4080   30.5250   31.5890 C   0  0  0  0  0  0  0  0  0  0  0  0
   38.3120   29.6390   32.6650 C   0  0  0  0  0  0  0  0  0  0  0  0
   39.3810   29.5090   33.5710 C   0  0  0  0  0  0  0  0  0  0  0  0
   39.4050   28.5850   34.7640 C   0  0  0  0  0  0  0  0  0  0  0  0
   40.2860   28.7210   35.6310 O   0  0  0  0  0  0  0  0  0  0  0  0
   38.4170   27.6230   34.9050 N   0  0  0  0  0  0  0  0  0  0  0  0
   40.5060   30.3250   33.3110 C   0  0  0  0  0  0  0  0  0  0  0  0
   40.6100   31.2270   32.2260 C   0  0  0  0  0  0  0  0  0  0  0  0
   41.9110   31.9770   32.1760 C   0  0  0  0  0  0  0  0  0  0  0  0
   42.9870   31.5060   31.4480 C   0  0  0  0  0  0  0  0  0  0  0  0
   44.2120   32.1920   31.4660 C   0  0  0  0  0  0  0  0  0  0  0  0
   44.4000   33.3460   32.2420 C   0  0  0  0  0  0  0  0  0  0  0  0
   43.3170   33.7730   33.0100 C   0  0  0  0  0  0  0  0  0  0  0  0
   42.0990   33.0920   32.9560 C   0  0  0  0  0  0  0  0  0  0  0  0
   45.6910   34.0920   32.3920 C   0  0  0  0  0  0  0  0  0  0  0  0
   45.7880   35.2700   32.7450 O   0  0  0  0  0  0  0  0  0  0  0  0
   46.7910   33.2990   32.2650 N   0  0  0  0  0  0  0  0  0  0  0  0
   48.1440   33.6290   32.7420 C   0  0  0  0  0  0  0  0  0  0  0  0
  8  1  1  0
  3  2  1  0
  4  2  1  0
  4  3  1  0
 14  4  1  0
  6  5  1  0
  7  5  1  0
  7  6  1  0
 26  7  1  0
  9  8  2  0
 16  8  1  0
 10  9  1  0
 11 10  2  0
 12 11  1  0
 15 11  1  0
 13 12  2  0
 14 12  1  0
 16 15  2  0
 17 16  1  0
 18 17  2  0
 22 17  1  0
 19 18  1  0
 20 19  2  0
 21 20  1  0
 23 20  1  0
 22 21  2  0
 24 23  2  0
 25 23  1  0
 26 25  1  0
A    1
C9
A    2
C22
A    3
C21
A    4
C18
A    5
C26
A    6
C25
A    7
C24
A    8
C4
A    9
C8
A   10
C13
A   11
C7
A   12
C12
A   13
O16
A   14
N15
A   15
C3
A   16
C1
A   17
C2
A   18
C5
A   19
C10
A   20
C14
A   21
C11
A   22
C6
A   23
C17
A   24
O20
A   25
N19
A   26
C23
M  END
>  <Id>  (16) 
3D7Z_GK5_A_401

>  <ChainId>  (16) 
A

>  <AsymId>  (16) 
C

>  <SeqNum>  (16) 
401

>  <Name>  (16) 
N~3~-cyclopropyl-N~4~'-(cyclopropylmethyl)-6-methylbiphenyl-3,4'-dicarboxamide

>  <SystematicName>  (16) 
N-cyclopropyl-3-[4-(cyclopropylmethylcarbamoyl)phenyl]-4-methyl-benzamide

>  <Synonyms>  (16) 
N3-cyclopropyl-N4'-(cyclopropylmethyl)-6-methyl-3,4'-biphenyldicarboxamide

>  <Type>  (16) 
NON-POLYMER

>  <Formula>  (16) 
C22 H24 N2 O2

>  <ObservedFormula>  (16) 
C22 N2 O2

>  <MolecularWeight>  (16) 
348.438

>  <ModifiedDate>  (16) 
2011-06-04

>  <Parent>  (16) 


>  <OneLetterCode>  (16) 


>  <SubcomponentList>  (16) 


>  <AmbiguousFlag>  (16) 
N

>  <InsertionCode>  (16) 


>  <InstanceId>  (16) 
3D7Z_GK5_A_401

>  <ChemCompId>  (16) 
GK5

>  <PdbId>  (16) 
3D7Z

>  <ResidueNumber>  (16) 
401

>  <InChI>  (16) 
InChI=1S/C22H24N2O2/c1-14-2-5-18(22(26)24-19-10-11-19)12-20(14)16-6-8-17(9-7-16)21(25)23-13-15-3-4-15/h2,5-9,12,15,19H,3-4,10-11,13H2,1H3,(H,23,25)(H,24,26)

>  <InChIKey>  (16) 
BOPSUAHGQHFKGG-UHFFFAOYSA-N

>  <SMILES>  (16) 
Cc1ccc(cc1c2ccc(cc2)C(=O)NCC3CC3)C(=O)NC4CC4

>  <MissingHeavyAtoms>  (16) 
0

>  <Model>  (16) 
1

>  <AltIds>  (16) 


>  <pKI>  (16) 
7.96

>  <ChemblID>  (16) 
CHEMBL478649

>  <standardized_canonical_smiles>  (16) 
Cc1ccc(C(=O)NC2CC2)cc1-c1ccc(C(=O)NCC2CC2)cc1

$$$$
3E92_G6A_A_361
     RDKit          3D

 26 29  0  0  0  0  0  0  0  0999 V2000
   48.9010   34.8130   30.4810 C   0  0  0  0  0  0  0  0  0  0  0  0
   37.1320   26.5140   36.2330 C   0  0  0  0  0  0  0  0  0  0  0  0
   38.2640   27.1710   36.9540 C   0  0  0  0  0  0  0  0  0  0  0  0
   38.5190   26.3570   35.7020 C   0  0  0  0  0  0  0  0  0  0  0  0
   47.5280   34.8470   31.1690 C   0  0  0  0  0  0  0  0  0  0  0  0
   46.6350   33.8930   30.9750 O   0  0  0  0  0  0  0  0  0  0  0  0
   46.9900   35.7430   32.0320 N   0  0  0  0  0  0  0  0  0  0  0  0
   45.8270   35.3620   32.3690 N   0  0  0  0  0  0  0  0  0  0  0  0
   45.5470   34.1890   31.7290 C   0  0  0  0  0  0  0  0  0  0  0  0
   44.3010   33.4070   31.8360 C   0  0  0  0  0  0  0  0  0  0  0  0
   43.2130   33.8020   32.6200 C   0  0  0  0  0  0  0  0  0  0  0  0
   42.0870   32.9840   32.6390 C   0  0  0  0  0  0  0  0  0  0  0  0
   44.2100   32.2030   31.1160 C   0  0  0  0  0  0  0  0  0  0  0  0
   43.0760   31.3710   31.1840 C   0  0  0  0  0  0  0  0  0  0  0  0
   43.0360   30.0670   30.4250 C   0  0  0  0  0  0  0  0  0  0  0  0
   41.9900   31.7880   31.9470 C   0  0  0  0  0  0  0  0  0  0  0  0
   40.7500   30.9510   32.0470 C   0  0  0  0  0  0  0  0  0  0  0  0
   40.6450   30.0430   33.1170 C   0  0  0  0  0  0  0  0  0  0  0  0
   39.5210   29.2010   33.2980 C   0  0  0  0  0  0  0  0  0  0  0  0
   39.5490   28.2860   34.4810 C   0  0  0  0  0  0  0  0  0  0  0  0
   40.4020   28.4830   35.3640 O   0  0  0  0  0  0  0  0  0  0  0  0
   38.5850   27.2970   34.6010 N   0  0  0  0  0  0  0  0  0  0  0  0
   38.4600   29.3230   32.3610 C   0  0  0  0  0  0  0  0  0  0  0  0
   38.5450   30.2290   31.3010 C   0  0  0  0  0  0  0  0  0  0  0  0
   39.6930   31.0460   31.1330 C   0  0  0  0  0  0  0  0  0  0  0  0
   39.7830   32.0540   29.9890 C   0  0  0  0  0  0  0  0  0  0  0  0
  5  1  1  0
  3  2  1  0
  4  2  1  0
  4  3  1  0
 22  4  1  0
  6  5  1  0
  7  5  2  0
  9  6  1  0
  8  7  1  0
  9  8  2  0
 10  9  1  0
 11 10  2  0
 13 10  1  0
 12 11  1  0
 16 12  2  0
 14 13  2  0
 15 14  1  0
 16 14  1  0
 17 16  1  0
 18 17  2  0
 25 17  1  0
 19 18  1  0
 20 19  1  0
 23 19  2  0
 21 20  2  0
 22 20  1  0
 24 23  1  0
 25 24  2  0
 26 25  1  0
A    1
C26
A    2
C23
A    3
C22
A    4
C19
A    5
C25
A    6
O21
A    7
N24
A    8
N20
A    9
C18
A   10
C15
A   11
C12
A   12
C6
A   13
C10
A   14
C5
A   15
C11
A   16
C2
A   17
C1
A   18
C3
A   19
C7
A   20
C13
A   21
O17
A   22
N16
A   23
C14
A   24
C8
A   25
C4
A   26
C9
M  END
>  <Id>  (17) 
3E92_G6A_A_361

>  <ChainId>  (17) 
A

>  <AsymId>  (17) 
B

>  <SeqNum>  (17) 
361

>  <Name>  (17) 
N-cyclopropyl-2',6-dimethyl-4'-(5-methyl-1,3,4-oxadiazol-2-yl)biphenyl-3-carboxamide

>  <SystematicName>  (17) 
N-cyclopropyl-4-methyl-3-[2-methyl-4-(5-methyl-1,3,4-oxadiazol-2-yl)phenyl]benzamide

>  <Synonyms>  (17) 


>  <Type>  (17) 
NON-POLYMER

>  <Formula>  (17) 
C21 H21 N3 O2

>  <ObservedFormula>  (17) 
C21 N3 O2

>  <MolecularWeight>  (17) 
347.41

>  <ModifiedDate>  (17) 
2011-06-04

>  <Parent>  (17) 


>  <OneLetterCode>  (17) 


>  <SubcomponentList>  (17) 


>  <AmbiguousFlag>  (17) 
N

>  <InsertionCode>  (17) 


>  <InstanceId>  (17) 
3E92_G6A_A_361

>  <ChemCompId>  (17) 
G6A

>  <PdbId>  (17) 
3E92

>  <ResidueNumber>  (17) 
361

>  <InChI>  (17) 
InChI=1S/C21H21N3O2/c1-12-4-5-15(20(25)22-17-7-8-17)11-19(12)18-9-6-16(10-13(18)2)21-24-23-14(3)26-21/h4-6,9-11,17H,7-8H2,1-3H3,(H,22,25)

>  <InChIKey>  (17) 
UBVTVSINEVHYSY-UHFFFAOYSA-N

>  <SMILES>  (17) 
Cc1ccc(cc1c2ccc(cc2C)c3nnc(o3)C)C(=O)NC4CC4

>  <MissingHeavyAtoms>  (17) 
0

>  <Model>  (17) 
1

>  <AltIds>  (17) 


>  <pKI>  (17) 
8.0

>  <ChemblID>  (17) 
CHEMBL522579

>  <standardized_canonical_smiles>  (17) 
Cc1nnc(-c2ccc(-c3cc(C(=O)NC4CC4)ccc3C)c(C)c2)o1

$$$$
3E93_19B_A_361
     RDKit          3D

 37 42  0  0  0  0  0  0  0  0999 V2000
   41.0000   29.8000   36.2000 O   0  0  0  0  0  0  0  0  0  0  0  0
   40.1650   29.4840   35.3570 C   0  0  0  0  0  0  0  0  0  0  0  0
   39.3020   28.4420   35.5360 N   0  0  0  0  0  0  0  0  0  0  0  0
   39.2780   27.5910   36.6470 C   0  0  0  0  0  0  0  0  0  0  0  0
   39.5450   27.9960   37.9890 C   0  0  0  0  0  0  0  0  0  0  0  0
   39.5250   27.0920   39.0830 C   0  0  0  0  0  0  0  0  0  0  0  0
   39.2210   25.7450   38.7730 C   0  0  0  0  0  0  0  0  0  0  0  0
   38.9480   25.3350   37.4620 C   0  0  0  0  0  0  0  0  0  0  0  0
   38.9790   26.2530   36.4030 C   0  0  0  0  0  0  0  0  0  0  0  0
   39.8530   27.4950   40.3960 N   0  0  0  0  0  0  0  0  0  0  0  0
   40.4560   28.8390   40.5990 C   0  0  0  0  0  0  0  0  0  0  0  0
   40.3240   29.3880   42.0340 C   0  0  0  0  0  0  0  0  0  0  0  0
   40.7020   28.3600   42.9180 O   0  0  0  0  0  0  0  0  0  0  0  0
   39.7690   27.2960   42.9390 C   0  0  0  0  0  0  0  0  0  0  0  0
   39.7280   26.5750   41.5720 C   0  0  0  0  0  0  0  0  0  0  0  0
   40.0370   30.3310   34.1470 C   0  0  0  0  0  0  0  0  0  0  0  0
   38.8300   30.5450   33.4680 C   0  0  0  0  0  0  0  0  0  0  0  0
   38.8000   31.3890   32.3550 C   0  0  0  0  0  0  0  0  0  0  0  0
   39.9600   32.0220   31.9080 C   0  0  0  0  0  0  0  0  0  0  0  0
   39.8990   32.9340   30.6860 C   0  0  0  0  0  0  0  0  0  0  0  0
   41.1550   31.8060   32.5980 C   0  0  0  0  0  0  0  0  0  0  0  0
   41.2020   30.9790   33.7030 C   0  0  0  0  0  0  0  0  0  0  0  0
   42.3860   32.4650   32.1310 C   0  0  0  0  0  0  0  0  0  0  0  0
   43.2440   31.7670   31.2830 C   0  0  0  0  0  0  0  0  0  0  0  0
   44.4020   32.3910   30.8140 C   0  0  0  0  0  0  0  0  0  0  0  0
   44.6680   33.7200   31.2190 C   0  0  0  0  0  0  0  0  0  0  0  0
   43.8040   34.3760   32.0510 C   0  0  0  0  0  0  0  0  0  0  0  0
   44.3090   35.6250   32.2690 O   0  0  0  0  0  0  0  0  0  0  0  0
   42.6640   33.7780   32.5110 C   0  0  0  0  0  0  0  0  0  0  0  0
   45.7300   34.5770   30.9160 C   0  0  0  0  0  0  0  0  0  0  0  0
   45.4450   35.7350   31.5930 N   0  0  0  0  0  0  0  0  0  0  0  0
   46.9380   34.2910   30.0510 C   0  0  0  0  0  0  0  0  0  0  0  0
   47.9210   33.3110   30.7360 C   0  0  0  0  0  0  0  0  0  0  0  0
   48.9430   32.8140   29.7150 C   0  0  0  0  0  0  0  0  0  0  0  0
   49.7120   33.9080   29.1010 N   0  0  0  0  0  0  0  0  0  0  0  0
   48.9620   35.1390   28.7590 C   0  0  0  0  0  0  0  0  0  0  0  0
   47.7790   35.5290   29.6890 C   0  0  0  0  0  0  0  0  0  0  0  0
  2  1  2  0
  3  2  1  0
 16  2  1  0
  4  3  1  0
  5  4  2  0
  9  4  1  0
  6  5  1  0
  7  6  2  0
 10  6  1  0
  8  7  1  0
  9  8  2  0
 11 10  1  0
 15 10  1  0
 12 11  1  0
 13 12  1  0
 14 13  1  0
 15 14  1  0
 17 16  2  0
 22 16  1  0
 18 17  1  0
 19 18  2  0
 20 19  1  0
 21 19  1  0
 22 21  2  0
 23 21  1  0
 24 23  2  0
 29 23  1  0
 25 24  1  0
 26 25  2  0
 27 26  1  0
 30 26  1  0
 28 27  1  0
 29 27  2  0
 31 28  1  0
 31 30  2  0
 32 30  1  0
 33 32  1  0
 37 32  1  0
 34 33  1  0
 35 34  1  0
 36 35  1  0
 37 36  1  0
A    1
O25
A    2
C22
A    3
N24
A    4
C26
A    5
C27
A    6
C29
A    7
C32
A    8
C30
A    9
C28
A   10
N31
A   11
C33
A   12
C35
A   13
O37
A   14
C36
A   15
C34
A   16
C19
A   17
C23
A   18
C20
A   19
C18
A   20
C21
A   21
C15
A   22
C17
A   23
C12
A   24
C9
A   25
C4
A   26
C1
A   27
C3
A   28
O8
A   29
C7
A   30
C2
A   31
N6
A   32
C5
A   33
C10
A   34
C13
A   35
N16
A   36
C14
A   37
C11
M  END
>  <Id>  (18) 
3E93_19B_A_361

>  <ChainId>  (18) 
A

>  <AsymId>  (18) 
B

>  <SeqNum>  (18) 
361

>  <Name>  (18) 
4-methyl-N-(3-morpholin-4-ylphenyl)-3-(3-piperidin-4-yl-1,2-benzisoxazol-6-yl)benzamide

>  <SystematicName>  (18) 
4-methyl-N-(3-morpholin-4-ylphenyl)-3-(3-piperidin-4-yl-1,2-benzoxazol-6-yl)benzamide

>  <Synonyms>  (18) 


>  <Type>  (18) 
NON-POLYMER

>  <Formula>  (18) 
C30 H32 N4 O3

>  <ObservedFormula>  (18) 
C30 N4 O3

>  <MolecularWeight>  (18) 
496.6

>  <ModifiedDate>  (18) 
2011-06-04

>  <Parent>  (18) 


>  <OneLetterCode>  (18) 


>  <SubcomponentList>  (18) 


>  <AmbiguousFlag>  (18) 
N

>  <InsertionCode>  (18) 


>  <InstanceId>  (18) 
3E93_19B_A_361

>  <ChemCompId>  (18) 
19B

>  <PdbId>  (18) 
3E93

>  <ResidueNumber>  (18) 
361

>  <InChI>  (18) 
InChI=1S/C30H32N4O3/c1-20-5-6-23(30(35)32-24-3-2-4-25(19-24)34-13-15-36-16-14-34)17-27(20)22-7-8-26-28(18-22)37-33-29(26)21-9-11-31-12-10-21/h2-8,17-19,21,31H,9-16H2,1H3,(H,32,35)

>  <InChIKey>  (18) 
UVUGBBNUQBSROH-UHFFFAOYSA-N

>  <SMILES>  (18) 
Cc1ccc(cc1c2ccc3c(c2)onc3C4CCNCC4)C(=O)Nc5cccc(c5)N6CCOCC6

>  <MissingHeavyAtoms>  (18) 
0

>  <Model>  (18) 
1

>  <AltIds>  (18) 


>  <pKI>  (18) 
8.85

>  <ChemblID>  (18) 
CHEMBL485285

>  <standardized_canonical_smiles>  (18) 
Cc1ccc(C(=O)Nc2cccc(N3CCOCC3)c2)cc1-c1ccc2c(C3CCNCC3)noc2c1

$$$$
3LFA_1N1_A_361
     RDKit          3D

 33 36  0  0  0  0  0  0  0  0999 V2000
   21.8210    0.0050  -24.4030 C   0  0  0  0  0  0  0  0  0  0  0  0
   22.0750    0.3610  -23.1370 C   0  0  0  0  0  0  0  0  0  0  0  0
   22.3500   -0.5470  -21.9540 C   0  0  0  0  0  0  0  0  0  0  0  0
   21.6810   10.7960  -27.1840 N   0  0  0  0  0  0  0  0  0  0  0  0
   22.9820   -4.4820  -19.0270 C   0  0  0  0  0  0  0  0  0  0  0  0
   21.7260   -3.9670  -19.3380 C   0  0  0  0  0  0  0  0  0  0  0  0
   21.5480   -3.0810  -20.4020 C   0  0  0  0  0  0  0  0  0  0  0  0
   20.1230   -2.5790  -20.7050 C   0  0  0  0  0  0  0  0  0  0  0  0
   21.6210    4.6100  -24.7880 C   0  0  0  0  0  0  0  0  0  0  0  0
   21.5530    5.7640  -25.5900 C   0  0  0  0  0  0  0  0  0  0  0  0
   21.7180    7.0220  -24.9810 C   0  0  0  0  0  0  0  0  0  0  0  0
   21.9750    5.9500  -22.9070 C   0  0  0  0  0  0  0  0  0  0  0  0
   22.1910    6.0280  -21.3960 C   0  0  0  0  0  0  0  0  0  0  0  0
   21.5030    8.2870  -27.1940 C   0  0  0  0  0  0  0  0  0  0  0  0
   21.8000    9.5410  -24.9570 C   0  0  0  0  0  0  0  0  0  0  0  0
   22.5630   11.9610  -27.4620 C   0  0  0  0  0  0  0  0  0  0  0  0
   21.7110   13.2180  -27.7560 C   0  0  0  0  0  0  0  0  0  0  0  0
   21.4750    3.3870  -25.3210 N   0  0  0  0  0  0  0  0  0  0  0  0
   21.6630    2.2480  -24.6520 C   0  0  0  0  0  0  0  0  0  0  0  0
   21.6000    1.0460  -25.2340 N   0  0  0  0  0  0  0  0  0  0  0  0
   22.0030    2.0520  -22.9690 S   0  0  0  0  0  0  0  0  0  0  0  0
   22.4970   -1.8620  -22.2000 N   0  0  0  0  0  0  0  0  0  0  0  0
   22.6620   -2.7110  -21.1720 C   0  0  0  0  0  0  0  0  0  0  0  0
   23.9190   -3.2210  -20.8440 C   0  0  0  0  0  0  0  0  0  0  0  0
   24.0880   -4.1040  -19.7870 C   0  0  0  0  0  0  0  0  0  0  0  0
   25.3040   -2.7860  -21.7730 Cl  0  0  0  0  0  0  0  0  0  0  0  0
   22.4220   -0.0280  -20.8450 O   0  0  0  0  0  0  0  0  0  0  0  0
   21.9230    7.0670  -23.6510 N   0  0  0  0  0  0  0  0  0  0  0  0
   21.8220    4.7440  -23.4720 N   0  0  0  0  0  0  0  0  0  0  0  0
   21.6690    8.2490  -25.7100 N   0  0  0  0  0  0  0  0  0  0  0  0
   22.2140    9.5360  -27.7710 C   0  0  0  0  0  0  0  0  0  0  0  0
   21.2230   10.7400  -25.7580 C   0  0  0  0  0  0  0  0  0  0  0  0
   22.4380   14.1800  -28.5660 O   0  0  0  0  0  0  0  0  0  0  0  0
  2  1  2  0
 20  1  1  0
  3  2  1  0
 21  2  1  0
 22  3  1  0
 27  3  2  0
 16  4  1  0
 31  4  1  0
 32  4  1  0
  6  5  2  0
 25  5  1  0
  7  6  1  0
  8  7  1  0
 23  7  2  0
 10  9  2  0
 18  9  1  0
 29  9  1  0
 11 10  1  0
 28 11  2  0
 30 11  1  0
 13 12  1  0
 28 12  1  0
 29 12  2  0
 30 14  1  0
 31 14  1  0
 30 15  1  0
 32 15  1  0
 17 16  1  0
 33 17  1  0
 19 18  1  0
 20 19  2  0
 21 19  1  0
 23 22  1  0
 24 23  1  0
 25 24  2  0
 26 24  1  0
A    1
C1
A    2
C2
A    3
C3
A    4
N6
A    5
C7
A    6
C8
A    7
C9
A    8
C10
A    9
C11
A   10
C12
A   11
C13
A   12
C14
A   13
C15
A   14
C16
A   15
C19
A   16
C20
A   17
C21
A   18
N
A   19
C
A   20
N1
A   21
S
A   22
N2
A   23
C4
A   24
C5
A   25
C6
A   26
CL
A   27
O
A   28
N3
A   29
N4
A   30
N5
A   31
C17
A   32
C18
A   33
O1
M  END
>  <Id>  (19) 
3LFA_1N1_A_361

>  <ChainId>  (19) 
A

>  <AsymId>  (19) 
B

>  <SeqNum>  (19) 
361

>  <Name>  (19) 
N-(2-CHLORO-6-METHYLPHENYL)-2-({6-[4-(2-HYDROXYETHYL)PIPERAZIN-1-YL]-2-METHYLPYRIMIDIN-4-YL}AMINO)-1,3-THIAZOLE-5-CARBOXAMIDE

>  <SystematicName>  (19) 
N-(2-chloranyl-6-methyl-phenyl)-2-[[6-[4-(2-hydroxyethyl)piperazin-1-yl]-2-methyl-pyrimidin-4-yl]amino]-1,3-thiazole-5-carboxamide

>  <Synonyms>  (19) 
Dasatinib

>  <Type>  (19) 
NON-POLYMER

>  <Formula>  (19) 
C22 H26 Cl N7 O2 S

>  <ObservedFormula>  (19) 
C22 S Cl N7 O2

>  <MolecularWeight>  (19) 
488.006

>  <ModifiedDate>  (19) 
2011-07-22

>  <Parent>  (19) 


>  <OneLetterCode>  (19) 


>  <SubcomponentList>  (19) 


>  <AmbiguousFlag>  (19) 
N

>  <InsertionCode>  (19) 


>  <InstanceId>  (19) 
3LFA_1N1_A_361

>  <ChemCompId>  (19) 
1N1

>  <PdbId>  (19) 
3LFA

>  <ResidueNumber>  (19) 
361

>  <InChI>  (19) 
InChI=1S/C22H26ClN7O2S/c1-14-4-3-5-16(23)20(14)28-21(32)17-13-24-22(33-17)27-18-12-19(26-15(2)25-18)30-8-6-29(7-9-30)10-11-31/h3-5,12-13,31H,6-11H2,1-2H3,(H,28,32)(H,24,25,26,27)

>  <InChIKey>  (19) 
ZBNZXTGUTAYRHI-UHFFFAOYSA-N

>  <SMILES>  (19) 
Cc1cccc(c1NC(=O)c2cnc(s2)Nc3cc(nc(n3)C)N4CCN(CC4)CCO)Cl

>  <MissingHeavyAtoms>  (19) 
0

>  <Model>  (19) 
1

>  <AltIds>  (19) 


>  <pKI>  (19) 
7.5

>  <ChemblID>  (19) 
CHEMBL1421

>  <standardized_canonical_smiles>  (19) 
Cc1nc(Nc2ncc(C(=O)Nc3c(C)cccc3Cl)s2)cc(N2CCN(CCO)CC2)n1

$$$$
3LHJ_LHJ_A_361
     RDKit          3D

 32 36  0  0  0  0  0  0  0  0999 V2000
   -0.9710   10.9790   29.9030 N   0  0  0  0  0  0  0  0  0  0  0  0
    0.0600    8.7180   29.2870 N   0  0  0  0  0  0  0  0  0  0  0  0
   -3.1480   11.2410   28.8310 C   0  0  0  0  0  0  0  0  0  0  0  0
   -3.0070    9.9880   28.2390 C   0  0  0  0  0  0  0  0  0  0  0  0
   -1.4960    8.0340   28.0500 C   0  0  0  0  0  0  0  0  0  0  0  0
    0.0840   11.5390   30.7860 C   0  0  0  0  0  0  0  0  0  0  0  0
   -4.2990   11.9790   28.5620 C   0  0  0  0  0  0  0  0  0  0  0  0
    2.3270    9.3210   29.3080 C   0  0  0  0  0  0  0  0  0  0  0  0
    2.6380    8.0220   31.7480 C   0  0  0  0  0  0  0  0  0  0  0  0
   -4.2330   12.9240   27.5420 C   0  0  0  0  0  0  0  0  0  0  0  0
   -6.5350   13.5260   27.9080 C   0  0  0  0  0  0  0  0  0  0  0  0
   -5.6050   10.7660   30.3850 C   0  0  0  0  0  0  0  0  0  0  0  0
   -5.2040   14.7200   26.0870 C   0  0  0  0  0  0  0  0  0  0  0  0
   -6.2900   16.5030   24.8060 C   0  0  0  0  0  0  0  0  0  0  0  0
   -7.6080   16.6730   24.0550 C   0  0  0  0  0  0  0  0  0  0  0  0
   -6.4280   15.9800   23.3760 C   0  0  0  0  0  0  0  0  0  0  0  0
   -6.2750   15.4720   25.8580 N   0  0  0  0  0  0  0  0  0  0  0  0
   -4.1540   14.8080   25.4510 O   0  0  0  0  0  0  0  0  0  0  0  0
   -5.3400   13.6990   27.2130 C   0  0  0  0  0  0  0  0  0  0  0  0
   -6.6100   12.5770   28.9290 C   0  0  0  0  0  0  0  0  0  0  0  0
   -5.4970   11.8000   29.2580 C   0  0  0  0  0  0  0  0  0  0  0  0
   -2.1340   11.7440   29.6570 C   0  0  0  0  0  0  0  0  0  0  0  0
   -2.2530   12.8540   30.1760 O   0  0  0  0  0  0  0  0  0  0  0  0
   -0.8460    9.7000   29.2950 C   0  0  0  0  0  0  0  0  0  0  0  0
   -1.8680    9.2290   28.4770 C   0  0  0  0  0  0  0  0  0  0  0  0
   -0.3020    7.7790   28.5780 N   0  0  0  0  0  0  0  0  0  0  0  0
    1.2340    8.6960   29.9110 C   0  0  0  0  0  0  0  0  0  0  0  0
    1.3880    8.0370   31.1310 C   0  0  0  0  0  0  0  0  0  0  0  0
    3.7210    8.6580   31.1430 C   0  0  0  0  0  0  0  0  0  0  0  0
    4.9230    8.6420   31.7360 F   0  0  0  0  0  0  0  0  0  0  0  0
    3.5740    9.3110   29.9260 C   0  0  0  0  0  0  0  0  0  0  0  0
    2.1750    9.9530   28.1280 F   0  0  0  0  0  0  0  0  0  0  0  0
  6  1  1  0
 22  1  1  0
 24  1  1  0
 24  2  1  0
 26  2  1  0
 27  2  1  0
  4  3  2  0
  7  3  1  0
 22  3  1  0
 25  4  1  0
 25  5  1  0
 26  5  2  0
 10  7  2  0
 21  7  1  0
 27  8  2  0
 31  8  1  0
 32  8  1  0
 28  9  2  0
 29  9  1  0
 19 10  1  0
 19 11  2  0
 20 11  1  0
 21 12  1  0
 17 13  1  0
 18 13  2  0
 19 13  1  0
 15 14  1  0
 16 14  1  0
 17 14  1  0
 16 15  1  0
 21 20  2  0
 23 22  2  0
 25 24  2  0
 28 27  1  0
 30 29  1  0
 31 29  2  0
A    1
N1
A    2
N3
A    3
C4
A    4
C5
A    5
C6
A    6
C7
A    7
C8
A    8
C10
A    9
C13
A   10
C15
A   11
C17
A   12
C20
A   13
C21
A   14
C22
A   15
C24
A   16
C23
A   17
N4
A   18
O2
A   19
C16
A   20
C18
A   21
C19
A   22
C3
A   23
O1
A   24
C2
A   25
C1
A   26
N2
A   27
C9
A   28
C14
A   29
C12
A   30
F2
A   31
C11
A   32
F1
M  END
>  <Id>  (20) 
3LHJ_LHJ_A_361

>  <ChainId>  (20) 
A

>  <AsymId>  (20) 
B

>  <SeqNum>  (20) 
361

>  <Name>  (20) 
N-cyclopropyl-3-[1-(2,4-difluorophenyl)-7-methyl-6-oxo-6,7-dihydro-1H-pyrazolo[3,4-b]pyridin-5-yl]-4-methylbenzamide

>  <SystematicName>  (20) 
N-cyclopropyl-3-[1-(2,4-difluorophenyl)-7-methyl-6-oxo-pyrazolo[3,4-b]pyridin-5-yl]-4-methyl-benzamide

>  <Synonyms>  (20) 


>  <Type>  (20) 
NON-POLYMER

>  <Formula>  (20) 
C24 H20 F2 N4 O2

>  <ObservedFormula>  (20) 
C24 F2 N4 O2

>  <MolecularWeight>  (20) 
434.438

>  <ModifiedDate>  (20) 
2011-06-04

>  <Parent>  (20) 


>  <OneLetterCode>  (20) 


>  <SubcomponentList>  (20) 


>  <AmbiguousFlag>  (20) 
N

>  <InsertionCode>  (20) 


>  <InstanceId>  (20) 
3LHJ_LHJ_A_361

>  <ChemCompId>  (20) 
LHJ

>  <PdbId>  (20) 
3LHJ

>  <ResidueNumber>  (20) 
361

>  <InChI>  (20) 
InChI=1S/C24H20F2N4O2/c1-13-3-4-14(22(31)28-17-6-7-17)9-18(13)19-10-15-12-27-30(23(15)29(2)24(19)32)21-8-5-16(25)11-20(21)26/h3-5,8-12,17H,6-7H2,1-2H3,(H,28,31)

>  <InChIKey>  (20) 
XQRUWZMHPKNIDA-UHFFFAOYSA-N

>  <SMILES>  (20) 
Cc1ccc(cc1C2=Cc3cnn(c3N(C2=O)C)c4ccc(cc4F)F)C(=O)NC5CC5

>  <MissingHeavyAtoms>  (20) 
0

>  <Model>  (20) 
1

>  <AltIds>  (20) 


>  <pKI>  (20) 
8.64

>  <ChemblID>  (20) 
CHEMBL1091199

>  <standardized_canonical_smiles>  (20) 
Cc1ccc(C(=O)NC2CC2)cc1-c1cc2cnn(-c3ccc(F)cc3F)c2n(C)c1=O

$$$$
3HLL_I45_A_401
     RDKit          3D

 30 32  0  0  0  0  0  0  0  0999 V2000
   36.6840   36.6680   18.2600 C   0  0  0  0  0  0  0  0  0  0  0  0
   38.0040   37.0480   18.1550 C   0  0  0  0  0  0  0  0  0  0  0  0
   38.5950   37.3040   16.9450 C   0  0  0  0  0  0  0  0  0  0  0  0
   37.8490   37.1850   15.8030 C   0  0  0  0  0  0  0  0  0  0  0  0
   36.5260   36.8090   15.8790 C   0  0  0  0  0  0  0  0  0  0  0  0
   35.9440   36.5560   17.1050 C   0  0  0  0  0  0  0  0  0  0  0  0
   36.0660   36.4280   19.5890 C   0  0  0  0  0  0  0  0  0  0  0  0
   35.6680   37.7740   19.9480 O   0  0  0  0  0  0  0  0  0  0  0  0
   35.3280   37.9990   21.2810 C   0  0  0  0  0  0  0  0  0  0  0  0
   35.0660   39.2620   21.6780 C   0  0  0  0  0  0  0  0  0  0  0  0
   34.6970   39.5170   23.0960 C   0  0  0  0  0  0  0  0  0  0  0  0
   34.6460   38.4050   23.9230 N   0  0  0  0  0  0  0  0  0  0  0  0
   34.9310   37.1250   23.4710 C   0  0  0  0  0  0  0  0  0  0  0  0
   35.2580   36.9000   22.1960 C   0  0  0  0  0  0  0  0  0  0  0  0
   34.2270   38.6030   25.2470 C   0  0  0  0  0  0  0  0  0  0  0  0
   35.1530   39.0970   26.1480 C   0  0  0  0  0  0  0  0  0  0  0  0
   34.7600   39.2740   27.4600 C   0  0  0  0  0  0  0  0  0  0  0  0
   33.4800   38.9770   27.8680 C   0  0  0  0  0  0  0  0  0  0  0  0
   32.5700   38.4900   26.9640 C   0  0  0  0  0  0  0  0  0  0  0  0
   32.9380   38.2980   25.6500 C   0  0  0  0  0  0  0  0  0  0  0  0
   38.7710   37.1710   19.2450 F   0  0  0  0  0  0  0  0  0  0  0  0
   38.4340   37.4590   14.6230 F   0  0  0  0  0  0  0  0  0  0  0  0
   35.1590   40.6940   20.5260 Br  0  0  0  0  0  0  0  0  0  0  0  0
   34.4600   40.6580   23.4590 O   0  0  0  0  0  0  0  0  0  0  0  0
   34.8520   35.9970   24.4400 C   0  0  0  0  0  0  0  0  0  0  0  0
   35.7200   39.8060   28.4400 C   0  0  0  0  0  0  0  0  0  0  0  0
   36.5860   40.5800   28.0490 O   0  0  0  0  0  0  0  0  0  0  0  0
   35.5210   39.4160   29.7530 N   0  0  0  0  0  0  0  0  0  0  0  0
   35.5240   38.0420   30.2060 C   0  0  0  0  0  0  0  0  0  0  0  0
   31.8930   37.7630   24.7270 C   0  0  0  0  0  0  0  0  0  0  0  0
  2  1  2  0
  6  1  1  0
  7  1  1  0
  3  2  1  0
 21  2  1  0
  4  3  2  0
  5  4  1  0
 22  4  1  0
  6  5  2  0
  8  7  1  0
  9  8  1  0
 10  9  2  0
 14  9  1  0
 11 10  1  0
 23 10  1  0
 12 11  1  0
 24 11  2  0
 13 12  1  0
 15 12  1  0
 14 13  2  0
 25 13  1  0
 16 15  2  0
 20 15  1  0
 17 16  1  0
 18 17  2  0
 26 17  1  0
 19 18  1  0
 20 19  2  0
 30 20  1  0
 27 26  2  0
 28 26  1  0
 29 28  1  0
A    1
C1
A    2
C2
A    3
C3
A    4
C4
A    5
C5
A    6
C6
A    7
C7
A    8
O8
A    9
C9
A   10
C10
A   11
C11
A   12
N12
A   13
C13
A   14
C14
A   15
C15
A   16
C16
A   17
C17
A   18
C18
A   19
C19
A   20
C20
A   21
F21
A   22
F22
A   23
BR23
A   24
O24
A   25
C25
A   26
C26
A   27
O27
A   28
N28
A   29
C29
A   30
C30
M  END
>  <Id>  (21) 
3HLL_I45_A_401

>  <ChainId>  (21) 
A

>  <AsymId>  (21) 
B

>  <SeqNum>  (21) 
401

>  <Name>  (21) 
3-{3-bromo-4-[(2,4-difluorobenzyl)oxy]-6-methyl-2-oxopyridin-1(2H)-yl}-N,4-dimethylbenzamide

>  <SystematicName>  (21) 
3-[3-bromo-4-[(2,4-difluorophenyl)methoxy]-6-methyl-2-oxo-pyridin-1-yl]-N,4-dimethyl-benzamide

>  <Synonyms>  (21) 


>  <Type>  (21) 
NON-POLYMER

>  <Formula>  (21) 
C22 H19 Br F2 N2 O3

>  <ObservedFormula>  (21) 
Br C22 F2 N2 O3

>  <MolecularWeight>  (21) 
477.299

>  <ModifiedDate>  (21) 
2011-06-04

>  <Parent>  (21) 


>  <OneLetterCode>  (21) 


>  <SubcomponentList>  (21) 


>  <AmbiguousFlag>  (21) 
N

>  <InsertionCode>  (21) 


>  <InstanceId>  (21) 
3HLL_I45_A_401

>  <ChemCompId>  (21) 
I45

>  <PdbId>  (21) 
3HLL

>  <ResidueNumber>  (21) 
401

>  <InChI>  (21) 
InChI=1S/C22H19BrF2N2O3/c1-12-4-5-14(21(28)26-3)9-18(12)27-13(2)8-19(20(23)22(27)29)30-11-15-6-7-16(24)10-17(15)25/h4-10H,11H2,1-3H3,(H,26,28)

>  <InChIKey>  (21) 
KCAJXIDMCNPGHZ-UHFFFAOYSA-N

>  <SMILES>  (21) 
Cc1ccc(cc1N2C(=CC(=C(C2=O)Br)OCc3ccc(cc3F)F)C)C(=O)NC

>  <MissingHeavyAtoms>  (21) 
0

>  <Model>  (21) 
1

>  <AltIds>  (21) 


>  <pKI>  (21) 
8.39

>  <ChemblID>  (21) 
CHEMBL1088751

>  <standardized_canonical_smiles>  (21) 
CNC(=O)c1ccc(C)c(-n2c(C)cc(OCc3ccc(F)cc3F)c(Br)c2=O)c1

$$$$
3IPH_G11_A_361
     RDKit          3D

 26 29  0  0  0  0  0  0  0  0999 V2000
   40.7390   31.2240   32.5620 C   0  0  0  0  0  0  0  0  0  0  0  0
   41.9720   32.0370   32.5130 C   0  0  0  0  0  0  0  0  0  0  0  0
   40.6020   30.3750   33.6560 C   0  0  0  0  0  0  0  0  0  0  0  0
   39.7390   31.2890   31.6010 C   0  0  0  0  0  0  0  0  0  0  0  0
   42.0800   33.1910   33.2620 C   0  0  0  0  0  0  0  0  0  0  0  0
   43.0270   31.6210   31.7650 N   0  0  0  0  0  0  0  0  0  0  0  0
   39.5000   29.5370   33.8490 C   0  0  0  0  0  0  0  0  0  0  0  0
   38.6310   30.4630   31.7760 C   0  0  0  0  0  0  0  0  0  0  0  0
   39.8330   32.2060   30.3860 C   0  0  0  0  0  0  0  0  0  0  0  0
   44.1480   32.3570   31.7360 C   0  0  0  0  0  0  0  0  0  0  0  0
   43.2380   33.9530   33.2410 C   0  0  0  0  0  0  0  0  0  0  0  0
   39.5090   28.6770   35.0810 C   0  0  0  0  0  0  0  0  0  0  0  0
   38.5070   29.5980   32.8750 C   0  0  0  0  0  0  0  0  0  0  0  0
   44.3150   33.5330   32.4730 C   0  0  0  0  0  0  0  0  0  0  0  0
   38.6130   27.6400   35.1970 N   0  0  0  0  0  0  0  0  0  0  0  0
   40.3210   28.9230   35.9890 O   0  0  0  0  0  0  0  0  0  0  0  0
   45.5420   34.3580   32.4330 C   0  0  0  0  0  0  0  0  0  0  0  0
   38.6000   26.7110   36.2870 C   0  0  0  0  0  0  0  0  0  0  0  0
   46.4540   33.9380   31.5100 N   0  0  0  0  0  0  0  0  0  0  0  0
   45.6990   35.3800   33.0970 O   0  0  0  0  0  0  0  0  0  0  0  0
   38.2780   27.4790   37.5200 C   0  0  0  0  0  0  0  0  0  0  0  0
   37.2120   26.6860   36.8160 C   0  0  0  0  0  0  0  0  0  0  0  0
   47.7350   34.5760   31.2270 C   0  0  0  0  0  0  0  0  0  0  0  0
   48.8060   33.6970   31.8430 C   0  0  0  0  0  0  0  0  0  0  0  0
   49.0220   33.9820   33.2770 C   0  0  0  0  0  0  0  0  0  0  0  0
   50.0520   34.3630   32.2750 C   0  0  0  0  0  0  0  0  0  0  0  0
  2  1  1  0
  3  1  2  0
  4  1  1  0
  5  2  2  0
  6  2  1  0
  7  3  1  0
  8  4  2  0
  9  4  1  0
 11  5  1  0
 10  6  2  0
 12  7  1  0
 13  7  2  0
 13  8  1  0
 14 10  1  0
 14 11  2  0
 15 12  1  0
 16 12  2  0
 17 14  1  0
 18 15  1  0
 19 17  1  0
 20 17  2  0
 21 18  1  0
 22 18  1  0
 23 19  1  0
 22 21  1  0
 24 23  1  0
 25 24  1  0
 26 24  1  0
 26 25  1  0
A    1
C1
A    2
C2
A    3
C3
A    4
C4
A    5
C5
A    6
N6
A    7
C7
A    8
C8
A    9
C9
A   10
C10
A   11
C11
A   12
C12
A   13
C13
A   14
C14
A   15
N15
A   16
O16
A   17
C17
A   18
C18
A   19
N19
A   20
O20
A   21
C21
A   22
C22
A   23
C23
A   24
C24
A   25
C25
A   26
C26
M  END
>  <Id>  (22) 
3IPH_G11_A_361

>  <ChainId>  (22) 
A

>  <AsymId>  (22) 
B

>  <SeqNum>  (22) 
361

>  <Name>  (22) 
6-[5-(cyclopropylcarbamoyl)-2-methylphenyl]-N-(cyclopropylmethyl)pyridine-3-carboxamide

>  <SystematicName>  (22) 
6-[5-(cyclopropylcarbamoyl)-2-methyl-phenyl]-N-(cyclopropylmethyl)pyridine-3-carboxamide

>  <Synonyms>  (22) 


>  <Type>  (22) 
NON-POLYMER

>  <Formula>  (22) 
C21 H23 N3 O2

>  <ObservedFormula>  (22) 
C21 N3 O2

>  <MolecularWeight>  (22) 
349.426

>  <ModifiedDate>  (22) 
2011-06-04

>  <Parent>  (22) 


>  <OneLetterCode>  (22) 


>  <SubcomponentList>  (22) 


>  <AmbiguousFlag>  (22) 
N

>  <InsertionCode>  (22) 


>  <InstanceId>  (22) 
3IPH_G11_A_361

>  <ChemCompId>  (22) 
G11

>  <PdbId>  (22) 
3IPH

>  <ResidueNumber>  (22) 
361

>  <InChI>  (22) 
InChI=1S/C21H23N3O2/c1-13-2-5-15(21(26)24-17-7-8-17)10-18(13)19-9-6-16(12-22-19)20(25)23-11-14-3-4-14/h2,5-6,9-10,12,14,17H,3-4,7-8,11H2,1H3,(H,23,25)(H,24,26)

>  <InChIKey>  (22) 
WIXHEGLMUQGJCC-UHFFFAOYSA-N

>  <SMILES>  (22) 
Cc1ccc(cc1c2ccc(cn2)C(=O)NCC3CC3)C(=O)NC4CC4

>  <MissingHeavyAtoms>  (22) 
0

>  <Model>  (22) 
1

>  <AltIds>  (22) 


>  <pKI>  (22) 
7.6

>  <ChemblID>  (22) 
CHEMBL1232887

>  <standardized_canonical_smiles>  (22) 
Cc1ccc(C(=O)NC2CC2)cc1-c1ccc(C(=O)NCC2CC2)cn1

$$$$
3ROC_29A_A_401
     RDKit          3D

 31 33  0  0  0  0  0  0  0  0999 V2000
   36.8870   36.7870   18.1310 C   0  0  0  0  0  0  0  0  0  0  0  0
   38.2200   37.1920   17.9860 C   0  0  0  0  0  0  0  0  0  0  0  0
   38.7510   37.4070   16.7260 C   0  0  0  0  0  0  0  0  0  0  0  0
   37.9560   37.2110   15.6040 C   0  0  0  0  0  0  0  0  0  0  0  0
   36.6310   36.7870   15.7400 C   0  0  0  0  0  0  0  0  0  0  0  0
   36.1010   36.5780   17.0020 C   0  0  0  0  0  0  0  0  0  0  0  0
   36.2810   36.6050   19.5050 C   0  0  0  0  0  0  0  0  0  0  0  0
   35.7810   37.9510   19.9070 O   0  0  0  0  0  0  0  0  0  0  0  0
   35.4370   38.2350   21.1970 C   0  0  0  0  0  0  0  0  0  0  0  0
   35.1970   39.5500   21.5660 C   0  0  0  0  0  0  0  0  0  0  0  0
   34.8120   39.8480   23.0070 C   0  0  0  0  0  0  0  0  0  0  0  0
   34.7280   38.7530   23.8450 N   0  0  0  0  0  0  0  0  0  0  0  0
   35.0240   37.3930   23.2710 C   0  0  0  0  0  0  0  0  0  0  0  0
   35.3470   37.2420   22.0290 N   0  0  0  0  0  0  0  0  0  0  0  0
   34.3650   38.8340   25.2370 C   0  0  0  0  0  0  0  0  0  0  0  0
   33.1060   38.3730   25.7090 C   0  0  0  0  0  0  0  0  0  0  0  0
   32.8080   38.4620   27.0650 C   0  0  0  0  0  0  0  0  0  0  0  0
   33.7310   39.0160   27.9400 C   0  0  0  0  0  0  0  0  0  0  0  0
   34.9860   39.4880   27.4900 C   0  0  0  0  0  0  0  0  0  0  0  0
   35.2770   39.3840   26.1350 C   0  0  0  0  0  0  0  0  0  0  0  0
   38.9780   37.3920   19.0810 F   0  0  0  0  0  0  0  0  0  0  0  0
   38.4470   37.4370   14.3820 F   0  0  0  0  0  0  0  0  0  0  0  0
   35.3180   40.8440   20.4400 Cl  0  0  0  0  0  0  0  0  0  0  0  0
   34.5910   41.0350   23.3560 O   0  0  0  0  0  0  0  0  0  0  0  0
   31.9470   37.9380   24.7980 C   0  0  0  0  0  0  0  0  0  0  0  0
   35.9450   40.0840   28.4960 C   0  0  0  0  0  0  0  0  0  0  0  0
   36.8810   40.7910   28.1070 O   0  0  0  0  0  0  0  0  0  0  0  0
   35.7400   39.8540   29.8120 N   0  0  0  0  0  0  0  0  0  0  0  0
   36.6350   39.0280   30.6490 C   0  0  0  0  0  0  0  0  0  0  0  0
   36.0680   37.6100   30.8450 C   0  0  0  0  0  0  0  0  0  0  0  0
   34.6420   37.6370   30.8830 O   0  0  0  0  0  0  0  0  0  0  0  0
  2  1  2  0
  6  1  1  0
  7  1  1  0
  3  2  1  0
 21  2  1  0
  4  3  2  0
  5  4  1  0
 22  4  1  0
  6  5  2  0
  8  7  1  0
  9  8  1  0
 10  9  2  0
 14  9  1  0
 11 10  1  0
 23 10  1  0
 12 11  1  0
 24 11  2  0
 13 12  1  0
 15 12  1  0
 14 13  2  0
 16 15  2  0
 20 15  1  0
 17 16  1  0
 25 16  1  0
 18 17  2  0
 19 18  1  0
 20 19  2  0
 26 19  1  0
 27 26  2  0
 28 26  1  0
 29 28  1  0
 30 29  1  0
 31 30  1  0
A    1
C1
A    2
C2
A    3
C3
A    4
C4
A    5
C5
A    6
C6
A    7
C7
A    8
O8
A    9
C9
A   10
C10
A   11
C11
A   12
N12
A   13
C13
A   14
N14
A   15
C15
A   16
C16
A   17
C17
A   18
C18
A   19
C19
A   20
C20
A   21
F21
A   22
F22
A   23
CL23
A   24
O24
A   25
C25
A   26
C26
A   27
O27
A   28
N28
A   29
C29
A   30
C30
A   31
O31
M  END
>  <Id>  (23) 
3ROC_29A_A_401

>  <ChainId>  (23) 
A

>  <AsymId>  (23) 
B

>  <SeqNum>  (23) 
401

>  <Name>  (23) 
3-{5-chloro-4-[(2,4-difluorobenzyl)oxy]-6-oxopyrimidin-1(6H)-yl}-N-(2-hydroxyethyl)-4-methylbenzamide

>  <SystematicName>  (23) 
3-[4-[[2,4-bis(fluoranyl)phenyl]methoxy]-5-chloranyl-6-oxidanylidene-pyrimidin-1-yl]-N-(2-hydroxyethyl)-4-methyl-benzamide

>  <Synonyms>  (23) 


>  <Type>  (23) 
NON-POLYMER

>  <Formula>  (23) 
C21 H18 Cl F2 N3 O4

>  <ObservedFormula>  (23) 
C21 F2 Cl N3 O4

>  <MolecularWeight>  (23) 
449.835

>  <ModifiedDate>  (23) 
2011-06-10

>  <Parent>  (23) 


>  <OneLetterCode>  (23) 


>  <SubcomponentList>  (23) 


>  <AmbiguousFlag>  (23) 
N

>  <InsertionCode>  (23) 


>  <InstanceId>  (23) 
3ROC_29A_A_401

>  <ChemCompId>  (23) 
29A

>  <PdbId>  (23) 
3ROC

>  <ResidueNumber>  (23) 
401

>  <InChI>  (23) 
InChI=1S/C21H18ClF2N3O4/c1-12-2-3-13(19(29)25-6-7-28)8-17(12)27-11-26-20(18(22)21(27)30)31-10-14-4-5-15(23)9-16(14)24/h2-5,8-9,11,28H,6-7,10H2,1H3,(H,25,29)

>  <InChIKey>  (23) 
XIPYKUQAZQIESI-UHFFFAOYSA-N

>  <SMILES>  (23) 
Cc1ccc(cc1N2C=NC(=C(C2=O)Cl)OCc3ccc(cc3F)F)C(=O)NCCO

>  <MissingHeavyAtoms>  (23) 
0

>  <Model>  (23) 
1

>  <AltIds>  (23) 


>  <pKI>  (23) 
6.71

>  <ChemblID>  (23) 
CHEMBL1738710

>  <standardized_canonical_smiles>  (23) 
Cc1ccc(C(=O)NCCO)cc1-n1cnc(OCc2ccc(F)cc2F)c(Cl)c1=O

$$$$
3L8S_BFF_A_361
     RDKit          3D

 32 34  0  0  0  0  0  0  0  0999 V2000
   21.0140    0.4760  -24.5220 N   0  0  0  0  0  0  0  0  0  0  0  0
   21.7430    2.2140  -25.7390 O   0  0  0  0  0  0  0  0  0  0  0  0
   22.0450    6.6060  -23.3770 O   0  0  0  0  0  0  0  0  0  0  0  0
   25.4300   -0.9600  -21.2410 F   0  0  0  0  0  0  0  0  0  0  0  0
   20.8170   -1.7580  -20.1020 F   0  0  0  0  0  0  0  0  0  0  0  0
   24.0190   -5.8240  -21.2030 Br  0  0  0  0  0  0  0  0  0  0  0  0
   24.6160   -3.1200  -21.1680 C   0  0  0  0  0  0  0  0  0  0  0  0
   22.3110   -3.5770  -20.5800 C   0  0  0  0  0  0  0  0  0  0  0  0
   20.0580    8.6420  -24.7530 C   0  0  0  0  0  0  0  0  0  0  0  0
   18.5940    8.2010  -25.0460 C   0  0  0  0  0  0  0  0  0  0  0  0
   17.1380    3.8590  -23.9630 C   0  0  0  0  0  0  0  0  0  0  0  0
   18.2980    3.9160  -22.9800 C   0  0  0  0  0  0  0  0  0  0  0  0
   21.1230    8.0130  -25.6970 C   0  0  0  0  0  0  0  0  0  0  0  0
   17.8800    7.5050  -23.8640 C   0  0  0  0  0  0  0  0  0  0  0  0
   16.8160    5.3340  -24.2640 C   0  0  0  0  0  0  0  0  0  0  0  0
   18.4430    5.4190  -22.6930 C   0  0  0  0  0  0  0  0  0  0  0  0
   22.8840    0.0270  -20.5690 C   0  0  0  0  0  0  0  0  0  0  0  0
   22.5210    2.7940  -21.1080 N   0  0  0  0  0  0  0  0  0  0  0  0
   21.1840    6.5510  -25.4750 N   0  0  0  0  0  0  0  0  0  0  0  0
   21.5190    4.6260  -24.3330 N   0  0  0  0  0  0  0  0  0  0  0  0
   22.4380    0.5340  -21.8790 O   0  0  0  0  0  0  0  0  0  0  0  0
   22.2460    4.3050  -21.7380 S   0  0  0  0  0  0  0  0  0  0  0  0
   21.5810    1.6750  -24.6480 C   0  0  0  0  0  0  0  0  0  0  0  0
   21.6100    5.9640  -24.3410 C   0  0  0  0  0  0  0  0  0  0  0  0
   23.5880   -4.0060  -20.9450 C   0  0  0  0  0  0  0  0  0  0  0  0
   24.3840   -1.7750  -21.0240 C   0  0  0  0  0  0  0  0  0  0  0  0
   22.0590   -2.2090  -20.4400 C   0  0  0  0  0  0  0  0  0  0  0  0
   22.3010    1.8880  -22.0870 C   0  0  0  0  0  0  0  0  0  0  0  0
   23.1190   -1.3170  -20.6480 C   0  0  0  0  0  0  0  0  0  0  0  0
   21.8620    3.8330  -23.3070 C   0  0  0  0  0  0  0  0  0  0  0  0
   21.9190    2.4410  -23.3410 C   0  0  0  0  0  0  0  0  0  0  0  0
   18.0620    6.0400  -23.9680 N   0  0  0  0  0  0  0  0  0  0  0  0
 23  1  1  0
 23  2  2  0
 24  3  2  0
 26  4  1  0
 27  5  1  0
 25  6  1  0
 25  7  2  0
 26  7  1  0
 25  8  1  0
 27  8  2  0
 10  9  1  0
 13  9  1  0
 14 10  1  0
 12 11  1  0
 15 11  1  0
 16 12  1  0
 19 13  1  0
 32 14  1  0
 32 15  1  0
 32 16  1  0
 21 17  1  0
 29 17  1  0
 22 18  1  0
 28 18  2  0
 24 19  1  0
 24 20  1  0
 30 20  1  0
 28 21  1  0
 30 22  1  0
 31 23  1  0
 29 26  2  0
 29 27  1  0
 31 28  1  0
 31 30  2  0
A    1
NAA
A    2
OAB
A    3
OAC
A    4
FAD
A    5
FAE
A    6
BRAF
A    7
CAG
A    8
CAH
A    9
CAI
A   10
CAJ
A   11
CAK
A   12
CAL
A   13
CAM
A   14
CAN
A   15
CAO
A   16
CAP
A   17
CAQ
A   18
NAR
A   19
NAS
A   20
NAT
A   21
OAU
A   22
SAV
A   23
CAW
A   24
CAX
A   25
CAY
A   26
CAZ
A   27
CBA
A   28
CBB
A   29
CBC
A   30
CBD
A   31
CBE
A   32
NBF
M  END
>  <Id>  (24) 
3L8S_BFF_A_361

>  <ChainId>  (24) 
A

>  <AsymId>  (24) 
C

>  <SeqNum>  (24) 
361

>  <Name>  (24) 
3-[(4-bromo-2,6-difluorobenzyl)oxy]-5-{[(4-pyrrolidin-1-ylbutyl)carbamoyl]amino}isothiazole-4-carboxamide

>  <SystematicName>  (24) 
3-[(4-bromo-2,6-difluoro-phenyl)methoxy]-5-(4-pyrrolidin-1-ylbutylcarbamoylamino)-1,2-thiazole-4-carboxamide

>  <Synonyms>  (24) 
3-(4-bromo-2,6-difluorobenzyloxy)-5-(3-(4-(pyrrolidin-1-yl)butyl)ureido)isothiazole-4-carboxamide

>  <Type>  (24) 
NON-POLYMER

>  <Formula>  (24) 
C20 H24 Br F2 N5 O3 S

>  <ObservedFormula>  (24) 
Br C20 S F2 N5 O3

>  <MolecularWeight>  (24) 
532.402

>  <ModifiedDate>  (24) 
2011-06-04

>  <Parent>  (24) 


>  <OneLetterCode>  (24) 


>  <SubcomponentList>  (24) 


>  <AmbiguousFlag>  (24) 
N

>  <InsertionCode>  (24) 


>  <InstanceId>  (24) 
3L8S_BFF_A_361

>  <ChemCompId>  (24) 
BFF

>  <PdbId>  (24) 
3L8S

>  <ResidueNumber>  (24) 
361

>  <InChI>  (24) 
InChI=1S/C20H24BrF2N5O3S/c21-12-9-14(22)13(15(23)10-12)11-31-18-16(17(24)29)19(32-27-18)26-20(30)25-5-1-2-6-28-7-3-4-8-28/h9-10H,1-8,11H2,(H2,24,29)(H2,25,26,30)

>  <InChIKey>  (24) 
HXHAJRMTJXHJJZ-UHFFFAOYSA-N

>  <SMILES>  (24) 
c1c(cc(c(c1F)COc2c(c(sn2)NC(=O)NCCCCN3CCCC3)C(=O)N)F)Br

>  <MissingHeavyAtoms>  (24) 
0

>  <Model>  (24) 
1

>  <AltIds>  (24) 


>  <pKI>  (24) 
6.5

>  <ChemblID>  (24) 
CHEMBL253969

>  <standardized_canonical_smiles>  (24) 
NC(=O)c1c(OCc2c(F)cc(Br)cc2F)nsc1NC(=O)NCCCCN1CCCC1

$$$$
1YQJ_6NP_A_362
     RDKit          3D

 35 40  0  0  0  0  0  0  0  0999 V2000
   23.6430   14.9290   32.1010 C   0  0  0  0  0  0  0  0  0  0  0  0
   22.4710   15.6330   32.1960 N   0  0  0  0  0  0  0  0  0  0  0  0
   21.3140   14.9480   32.2960 N   0  0  0  0  0  0  0  0  0  0  0  0
   21.1820   13.5710   32.3150 C   0  0  0  0  0  0  0  0  0  0  0  0
   22.4790   12.7690   32.2120 C   0  0  0  0  0  0  0  0  0  0  0  0
   22.5310   11.2510   32.2180 C   0  0  0  0  0  0  0  0  0  0  0  0
   23.2230   10.5610   33.2370 C   0  0  0  0  0  0  0  0  0  0  0  0
   23.2490    9.1520   33.2260 C   0  0  0  0  0  0  0  0  0  0  0  0
   22.6270    8.4090   32.2650 N   0  0  0  0  0  0  0  0  0  0  0  0
   21.9560    9.0690   31.2750 C   0  0  0  0  0  0  0  0  0  0  0  0
   21.8880   10.4730   31.2180 C   0  0  0  0  0  0  0  0  0  0  0  0
   23.6570   13.5070   32.1080 C   0  0  0  0  0  0  0  0  0  0  0  0
   27.8700   13.9630   30.4080 C   0  0  0  0  0  0  0  0  0  0  0  0
   26.8240   11.7310   29.7290 C   0  0  0  0  0  0  0  0  0  0  0  0
   26.5550   10.3600   29.9570 C   0  0  0  0  0  0  0  0  0  0  0  0
   27.0480    9.7340   31.1220 C   0  0  0  0  0  0  0  0  0  0  0  0
   27.8140   10.4800   32.0570 C   0  0  0  0  0  0  0  0  0  0  0  0
   28.0830   11.8510   31.8270 C   0  0  0  0  0  0  0  0  0  0  0  0
   27.5910   12.4930   30.6620 C   0  0  0  0  0  0  0  0  0  0  0  0
   19.8100   12.9610   32.4270 C   0  0  0  0  0  0  0  0  0  0  0  0
   18.8840   13.1410   31.3700 C   0  0  0  0  0  0  0  0  0  0  0  0
   17.5850   12.5410   31.4540 C   0  0  0  0  0  0  0  0  0  0  0  0
   17.2100   11.7480   32.6140 C   0  0  0  0  0  0  0  0  0  0  0  0
   18.1480   11.5830   33.6660 C   0  0  0  0  0  0  0  0  0  0  0  0
   19.4290   12.1850   33.5640 C   0  0  0  0  0  0  0  0  0  0  0  0
   16.6480   12.7130   30.3860 C   0  0  0  0  0  0  0  0  0  0  0  0
   15.3620   12.1020   30.4710 C   0  0  0  0  0  0  0  0  0  0  0  0
   15.0030   11.3250   31.6110 C   0  0  0  0  0  0  0  0  0  0  0  0
   15.9170   11.1430   32.6880 C   0  0  0  0  0  0  0  0  0  0  0  0
   26.6020   14.8180   30.5590 C   0  0  0  0  0  0  0  0  0  0  0  0
   26.1720   15.0500   32.0230 C   0  0  0  0  0  0  0  0  0  0  0  0
   24.8320   15.6810   31.9890 N   0  0  0  0  0  0  0  0  0  0  0  0
   24.7960   17.0030   31.3040 C   0  0  0  0  0  0  0  0  0  0  0  0
   25.4250   16.8890   29.8890 C   0  0  0  0  0  0  0  0  0  0  0  0
   26.7050   16.1300   29.8820 N   0  0  0  0  0  0  0  0  0  0  0  0
  2  1  2  0
 12  1  1  0
 32  1  1  0
  3  2  1  0
  4  3  2  0
  5  4  1  0
 20  4  1  0
  6  5  1  0
 12  5  2  0
  7  6  2  0
 11  6  1  0
  8  7  1  0
  9  8  2  0
 10  9  1  0
 11 10  2  0
 19 13  1  0
 30 13  1  0
 15 14  2  0
 19 14  1  0
 16 15  1  0
 17 16  2  0
 18 17  1  0
 19 18  2  0
 21 20  2  0
 25 20  1  0
 22 21  1  0
 23 22  2  0
 26 22  1  0
 24 23  1  0
 29 23  1  0
 25 24  2  0
 27 26  2  0
 28 27  1  0
 29 28  2  0
 31 30  1  0
 35 30  1  0
 32 31  1  0
 33 32  1  0
 34 33  1  0
 35 34  1  0
A    1
C1
A    2
N1
A    3
N2
A    4
C2
A    5
C3
A    6
C5
A    7
C6
A    8
C7
A    9
N3
A   10
C8
A   11
C9
A   12
C4
A   13
C10
A   14
C11
A   15
C12
A   16
C13
A   17
C14
A   18
C15
A   19
C16
A   20
C17
A   21
C18
A   22
C19
A   23
C20
A   24
C21
A   25
C22
A   26
C23
A   27
C24
A   28
C25
A   29
C26
A   30
C27
A   31
C28
A   32
N4
A   33
C29
A   34
C30
A   35
N5
M  END
>  <Id>  (25) 
1YQJ_6NP_A_362

>  <ChainId>  (25) 
A

>  <AsymId>  (25) 
C

>  <SeqNum>  (25) 
362

>  <Name>  (25) 
6((S)-3-BENZYLPIPERAZIN-1-YL)-3-(NAPHTHALEN-2-YL)-4-(PYRIDIN-4-YL)PYRAZINE

>  <SystematicName>  (25) 
3-naphthalen-2-yl-6-[(1R,3S)-3-(phenylmethyl)piperazin-1-yl]-4-pyridin-4-yl-pyridazine

>  <Synonyms>  (25) 


>  <Type>  (25) 
NON-POLYMER

>  <Formula>  (25) 
C30 H27 N5

>  <ObservedFormula>  (25) 
C30 N5

>  <MolecularWeight>  (25) 
457.569

>  <ModifiedDate>  (25) 
2011-06-04

>  <Parent>  (25) 


>  <OneLetterCode>  (25) 


>  <SubcomponentList>  (25) 


>  <AmbiguousFlag>  (25) 
N

>  <InsertionCode>  (25) 


>  <InstanceId>  (25) 
1YQJ_6NP_A_362

>  <ChemCompId>  (25) 
6NP

>  <PdbId>  (25) 
1YQJ

>  <ResidueNumber>  (25) 
362

>  <InChI>  (25) 
InChI=1S/C30H27N5/c1-2-6-22(7-3-1)18-27-21-35(17-16-32-27)29-20-28(24-12-14-31-15-13-24)30(34-33-29)26-11-10-23-8-4-5-9-25(23)19-26/h1-15,19-20,27,32H,16-18,21H2/t27-/m0/s1

>  <InChIKey>  (25) 
WFSFNKVFXLIZIY-MHZLTWQESA-N

>  <SMILES>  (25) 
c1ccc(cc1)C[C@H]2C[N@@](CCN2)c3cc(c(nn3)c4ccc5ccccc5c4)c6ccncc6

>  <MissingHeavyAtoms>  (25) 
0

>  <Model>  (25) 
1

>  <AltIds>  (25) 


>  <pKI>  (25) 
8.14

>  <ChemblID>  (25) 
-

>  <standardized_canonical_smiles>  (25) 
c1ccc(C[C@H]2CN(c3cc(-c4ccncc4)c(-c4ccc5ccccc5c4)nn3)CCN2)cc1

$$$$
3BV2_P38_A_501
     RDKit          3D

 44 49  0  0  0  0  0  0  0  0999 V2000
   -4.6210   -2.3900   28.1990 C   0  0  0  0  0  0  0  0  0  0  0  0
   -3.3940   -2.0640   27.5530 C   0  0  0  0  0  0  0  0  0  0  0  0
   -2.6750   -3.1160   26.9230 C   0  0  0  0  0  0  0  0  0  0  0  0
   -0.2280   -3.6620   26.6750 C   0  0  0  0  0  0  0  0  0  0  0  0
   -5.1040   -3.7340   28.2120 C   0  0  0  0  0  0  0  0  0  0  0  0
   -4.3950   -4.7980   27.5870 C   0  0  0  0  0  0  0  0  0  0  0  0
   -3.1650   -4.4680   26.9360 C   0  0  0  0  0  0  0  0  0  0  0  0
   -3.6960    0.7600   17.8220 C   0  0  0  0  0  0  0  0  0  0  0  0
   -5.1580    0.7550   17.3610 C   0  0  0  0  0  0  0  0  0  0  0  0
   -2.2820   -2.5240   23.7620 C   0  0  0  0  0  0  0  0  0  0  0  0
    1.0670    2.4780   13.4420 C   0  0  0  0  0  0  0  0  0  0  0  0
   -3.1380    1.9920   15.7970 C   0  0  0  0  0  0  0  0  0  0  0  0
   -0.1410    3.0770   13.8620 C   0  0  0  0  0  0  0  0  0  0  0  0
   -2.5110    0.7680   22.4150 N   0  0  0  0  0  0  0  0  0  0  0  0
   -2.4590    2.2540   22.4020 N   0  0  0  0  0  0  0  0  0  0  0  0
   -2.4540    2.8430   21.1750 C   0  0  0  0  0  0  0  0  0  0  0  0
   -2.8990    2.1270   20.0870 N   0  0  0  0  0  0  0  0  0  0  0  0
   -3.0100    0.7870   20.1140 C   0  0  0  0  0  0  0  0  0  0  0  0
   -2.7790    0.0060   21.2370 C   0  0  0  0  0  0  0  0  0  0  0  0
   -2.7130   -1.4730   21.5090 C   0  0  0  0  0  0  0  0  0  0  0  0
   -2.4500   -1.5140   22.8980 C   0  0  0  0  0  0  0  0  0  0  0  0
   -2.3150   -0.1640   23.3680 C   0  0  0  0  0  0  0  0  0  0  0  0
   -2.8580   -2.6610   20.5020 C   0  0  0  0  0  0  0  0  0  0  0  0
   -2.5680   -3.6960   23.4820 O   0  0  0  0  0  0  0  0  0  0  0  0
   -1.6840   -2.0030   24.9620 N   0  0  0  0  0  0  0  0  0  0  0  0
   -1.4190   -2.7940   26.2730 C   0  0  0  0  0  0  0  0  0  0  0  0
   -3.3300    0.1510   18.9590 N   0  0  0  0  0  0  0  0  0  0  0  0
   -5.5350    1.4210   16.0450 C   0  0  0  0  0  0  0  0  0  0  0  0
   -4.5020    1.9940   15.3150 C   0  0  0  0  0  0  0  0  0  0  0  0
   -2.7150    1.3850   17.0610 C   0  0  0  0  0  0  0  0  0  0  0  0
   -6.3420    0.0670   18.1160 C   0  0  0  0  0  0  0  0  0  0  0  0
   -2.2140    2.6620   14.9740 N   0  0  0  0  0  0  0  0  0  0  0  0
   -0.8420    2.3370   14.8910 C   0  0  0  0  0  0  0  0  0  0  0  0
   -0.1690    1.5720   15.6070 O   0  0  0  0  0  0  0  0  0  0  0  0
    1.9020    3.1080   12.4600 C   0  0  0  0  0  0  0  0  0  0  0  0
    1.4660    4.2550   11.9600 N   0  0  0  0  0  0  0  0  0  0  0  0
    0.2560    4.7960   12.3830 C   0  0  0  0  0  0  0  0  0  0  0  0
   -0.6150    4.3310   13.3230 C   0  0  0  0  0  0  0  0  0  0  0  0
    3.1150    2.5080   12.0900 N   0  0  0  0  0  0  0  0  0  0  0  0
    3.4800    1.2660   12.8530 C   0  0  0  0  0  0  0  0  0  0  0  0
    4.5050    0.4330   12.1230 C   0  0  0  0  0  0  0  0  0  0  0  0
    5.5990    1.2240   11.8600 O   0  0  0  0  0  0  0  0  0  0  0  0
    5.3920    2.4260   11.0600 C   0  0  0  0  0  0  0  0  0  0  0  0
    4.2530    3.3140   11.5620 C   0  0  0  0  0  0  0  0  0  0  0  0
  2  1  2  0
  5  1  1  0
  3  2  1  0
  7  3  2  0
 26  3  1  0
 26  4  2  0
  6  5  2  0
  7  6  1  0
  9  8  2  0
 27  8  1  0
 30  8  1  0
 28  9  1  0
 31  9  1  0
 21 10  1  0
 24 10  2  0
 25 10  1  0
 13 11  2  0
 35 11  1  0
 29 12  1  0
 30 12  2  0
 32 12  1  0
 33 13  1  0
 38 13  1  0
 15 14  1  0
 19 14  1  0
 22 14  1  0
 16 15  2  0
 17 16  1  0
 18 17  2  0
 19 18  1  0
 27 18  1  0
 20 19  2  0
 21 20  1  0
 23 20  1  0
 22 21  2  0
 26 25  1  0
 29 28  2  0
 33 32  1  0
 34 33  2  0
 36 35  2  0
 39 35  1  0
 37 36  1  0
 38 37  2  0
 40 39  1  0
 44 39  1  0
 41 40  1  0
 42 41  1  0
 43 42  1  0
 44 43  1  0
A    1
C18
A    2
C17
A    3
C16
A    4
C15
A    5
C19
A    6
C20
A    7
C21
A    8
C23
A    9
C24
A   10
C11
A   11
C34
A   12
C27
A   13
C33
A   14
N1
A   15
N2
A   16
C3
A   17
N4
A   18
C5
A   19
C6
A   20
C7
A   21
C8
A   22
C9
A   23
C10
A   24
O12
A   25
N13
A   26
C14
A   27
N22
A   28
C25
A   29
C26
A   30
C28
A   31
C29
A   32
N30
A   33
C31
A   34
O32
A   35
C35
A   36
N36
A   37
C37
A   38
C38
A   39
N39
A   40
C40
A   41
C41
A   42
O42
A   43
C43
A   44
C44
M  END
>  <Id>  (26) 
3BV2_P38_A_501

>  <ChainId>  (26) 
A

>  <AsymId>  (26) 
B

>  <SeqNum>  (26) 
501

>  <Name>  (26) 
5-methyl-4-[(2-methyl-5-{[(2-morpholin-4-ylpyridin-4-yl)carbonyl]amino}phenyl)amino]-N-(1-phenylethenyl)pyrrolo[2,1-f][1,2,4]triazine-6-carboxamide

>  <SystematicName>  (26) 
5-methyl-4-[[2-methyl-5-[(2-morpholin-4-ylpyridin-4-yl)carbonylamino]phenyl]amino]-N-(1-phenylethenyl)pyrrolo[5,1-f][1,2,4]triazine-6-carboxamide

>  <Synonyms>  (26) 


>  <Type>  (26) 
NON-POLYMER

>  <Formula>  (26) 
C33 H32 N8 O3

>  <ObservedFormula>  (26) 
C33 N8 O3

>  <MolecularWeight>  (26) 
588.659

>  <ModifiedDate>  (26) 
2011-06-04

>  <Parent>  (26) 


>  <OneLetterCode>  (26) 


>  <SubcomponentList>  (26) 


>  <AmbiguousFlag>  (26) 
N

>  <InsertionCode>  (26) 


>  <InstanceId>  (26) 
3BV2_P38_A_501

>  <ChemCompId>  (26) 
P38

>  <PdbId>  (26) 
3BV2

>  <ResidueNumber>  (26) 
501

>  <InChI>  (26) 
InChI=1S/C33H32N8O3/c1-21-9-10-26(38-32(42)25-11-12-34-29(17-25)40-13-15-44-16-14-40)18-28(21)39-31-30-22(2)27(19-41(30)36-20-35-31)33(43)37-23(3)24-7-5-4-6-8-24/h4-12,17-20H,3,13-16H2,1-2H3,(H,37,43)(H,38,42)(H,35,36,39)

>  <InChIKey>  (26) 
ABOUJDCZZMNXIR-UHFFFAOYSA-N

>  <SMILES>  (26) 
Cc1ccc(cc1Nc2c3c(c(cn3ncn2)C(=O)NC(=C)c4ccccc4)C)NC(=O)c5ccnc(c5)N6CCOCC6

>  <MissingHeavyAtoms>  (26) 
0

>  <Model>  (26) 
1

>  <AltIds>  (26) 


>  <pKI>  (26) 
9.36

>  <ChemblID>  (26) 
-

>  <standardized_canonical_smiles>  (26) 
C=C(NC(=O)c1cn2ncnc(Nc3cc(NC(=O)c4ccnc(N5CCOCC5)c4)ccc3C)c2c1C)c1ccccc1

$$$$
4F9W_LM4_A_403
     RDKit          3D

 25 28  0  0  0  0  0  0  0  0999 V2000
    0.9190    4.6690   22.6420 C   0  0  0  0  0  0  0  0  0  0  0  0
    0.4040    3.3730   23.0710 N   0  0  0  0  0  0  0  0  0  0  0  0
    1.0060    2.6990   24.2240 C   0  0  0  0  0  0  0  0  0  0  0  0
   -0.6160    2.7590   22.3120 C   0  0  0  0  0  0  0  0  0  0  0  0
   -1.0820    3.4070   21.2270 N   0  0  0  0  0  0  0  0  0  0  0  0
   -2.0740    2.8890   20.4090 N   0  0  0  0  0  0  0  0  0  0  0  0
   -2.6060    1.6870   20.6480 C   0  0  0  0  0  0  0  0  0  0  0  0
   -2.1490    0.9380   21.7640 C   0  0  0  0  0  0  0  0  0  0  0  0
   -2.6050   -0.4600   22.0800 C   0  0  0  0  0  0  0  0  0  0  0  0
   -2.6390   -1.4080   21.0580 C   0  0  0  0  0  0  0  0  0  0  0  0
   -2.9900   -2.7250   21.3360 C   0  0  0  0  0  0  0  0  0  0  0  0
   -3.2780   -3.0900   22.6000 N   0  0  0  0  0  0  0  0  0  0  0  0
   -3.2110   -2.2140   23.6120 C   0  0  0  0  0  0  0  0  0  0  0  0
   -2.8520   -0.8950   23.3940 C   0  0  0  0  0  0  0  0  0  0  0  0
   -1.1400    1.4870   22.5860 C   0  0  0  0  0  0  0  0  0  0  0  0
   -3.6250    1.1960   19.7170 C   0  0  0  0  0  0  0  0  0  0  0  0
   -3.3100    1.1380   18.3760 C   0  0  0  0  0  0  0  0  0  0  0  0
   -4.2310    0.6630   17.4700 C   0  0  0  0  0  0  0  0  0  0  0  0
   -3.9060    0.6010   16.1300 C   0  0  0  0  0  0  0  0  0  0  0  0
   -4.8290    0.1180   15.2100 C   0  0  0  0  0  0  0  0  0  0  0  0
   -6.0840   -0.3240   15.6300 C   0  0  0  0  0  0  0  0  0  0  0  0
   -6.3930   -0.2340   16.9820 C   0  0  0  0  0  0  0  0  0  0  0  0
   -5.4850    0.2560   17.8950 C   0  0  0  0  0  0  0  0  0  0  0  0
   -5.8030    0.2970   19.2370 C   0  0  0  0  0  0  0  0  0  0  0  0
   -4.8760    0.7590   20.1540 C   0  0  0  0  0  0  0  0  0  0  0  0
  2  1  1  0
  3  2  1  0
  4  2  1  0
  5  4  2  0
 15  4  1  0
  6  5  1  0
  7  6  2  0
  8  7  1  0
 16  7  1  0
  9  8  1  0
 15  8  2  0
 10  9  2  0
 14  9  1  0
 11 10  1  0
 12 11  2  0
 13 12  1  0
 14 13  2  0
 17 16  2  0
 25 16  1  0
 18 17  1  0
 19 18  2  0
 23 18  1  0
 20 19  1  0
 21 20  2  0
 22 21  1  0
 23 22  2  0
 24 23  1  0
 25 24  2  0
A    1
C3
A    2
N2
A    3
C1
A    4
C4
A    5
N9
A    6
N8
A    7
C7
A    8
C6
A    9
C10
A   10
C21
A   11
C20
A   12
N19
A   13
C18
A   14
C17
A   15
C5
A   16
C11
A   17
C16
A   18
C15
A   19
C25
A   20
C24
A   21
C23
A   22
C22
A   23
C14
A   24
C13
A   25
C12
M  END
>  <Id>  (27) 
4F9W_LM4_A_403

>  <ChainId>  (27) 
A

>  <AsymId>  (27) 
D

>  <SeqNum>  (27) 
403

>  <Name>  (27) 
N,N-dimethyl-6-(naphthalen-2-yl)-5-(pyridin-4-yl)pyridazin-3-amine

>  <SystematicName>  (27) 
N,N-dimethyl-6-naphthalen-2-yl-5-pyridin-4-yl-pyridazin-3-amine

>  <Synonyms>  (27) 


>  <Type>  (27) 
NON-POLYMER

>  <Formula>  (27) 
C21 H18 N4

>  <ObservedFormula>  (27) 
C21 N4

>  <MolecularWeight>  (27) 
326.394

>  <ModifiedDate>  (27) 
2013-05-31

>  <Parent>  (27) 


>  <OneLetterCode>  (27) 


>  <SubcomponentList>  (27) 


>  <AmbiguousFlag>  (27) 
N

>  <InsertionCode>  (27) 


>  <InstanceId>  (27) 
4F9W_LM4_A_403

>  <ChemCompId>  (27) 
LM4

>  <PdbId>  (27) 
4F9W

>  <ResidueNumber>  (27) 
403

>  <InChI>  (27) 
InChI=1S/C21H18N4/c1-25(2)20-14-19(16-9-11-22-12-10-16)21(24-23-20)18-8-7-15-5-3-4-6-17(15)13-18/h3-14H,1-2H3

>  <InChIKey>  (27) 
ODFGOBPLQKLCRM-UHFFFAOYSA-N

>  <SMILES>  (27) 
CN(C)c1cc(c(nn1)c2ccc3ccccc3c2)c4ccncc4

>  <MissingHeavyAtoms>  (27) 
0

>  <Model>  (27) 
1

>  <AltIds>  (27) 


>  <pKI>  (27) 
6.94

>  <ChemblID>  (27) 
-

>  <standardized_canonical_smiles>  (27) 
CN(C)c1cc(-c2ccncc2)c(-c2ccc3ccccc3c2)nn1

$$$$
4F9Y_LM3_A_403
     RDKit          3D

 25 28  0  0  0  0  0  0  0  0999 V2000
    0.2430    5.3280   21.5170 C   0  0  0  0  0  0  0  0  0  0  0  0
   -0.2050    4.0720   22.1340 N   0  0  0  0  0  0  0  0  0  0  0  0
    0.5200    3.7940   23.3790 C   0  0  0  0  0  0  0  0  0  0  0  0
   -1.2160    3.2600   21.5550 C   0  0  0  0  0  0  0  0  0  0  0  0
   -1.9120    3.8000   20.5110 N   0  0  0  0  0  0  0  0  0  0  0  0
   -2.8610    3.1610   19.9150 N   0  0  0  0  0  0  0  0  0  0  0  0
   -3.2060    1.8740   20.2530 C   0  0  0  0  0  0  0  0  0  0  0  0
   -2.5790    1.2630   21.3350 C   0  0  0  0  0  0  0  0  0  0  0  0
   -2.8760   -0.1360   21.7570 C   0  0  0  0  0  0  0  0  0  0  0  0
   -3.1130   -0.4700   23.0750 C   0  0  0  0  0  0  0  0  0  0  0  0
   -3.3350   -1.8000   23.4020 C   0  0  0  0  0  0  0  0  0  0  0  0
   -3.3100   -2.7890   22.4330 N   0  0  0  0  0  0  0  0  0  0  0  0
   -3.0640   -2.4590   21.1040 C   0  0  0  0  0  0  0  0  0  0  0  0
   -2.8380   -1.1330   20.7870 C   0  0  0  0  0  0  0  0  0  0  0  0
   -1.5530    1.9650   21.9730 C   0  0  0  0  0  0  0  0  0  0  0  0
   -4.3310    1.3010   19.4890 C   0  0  0  0  0  0  0  0  0  0  0  0
   -4.3270    1.1010   18.1350 C   0  0  0  0  0  0  0  0  0  0  0  0
   -3.2290    1.3990   17.3530 C   0  0  0  0  0  0  0  0  0  0  0  0
   -3.2770    1.1420   15.9890 C   0  0  0  0  0  0  0  0  0  0  0  0
   -4.4140    0.6240   15.4120 C   0  0  0  0  0  0  0  0  0  0  0  0
   -5.5320    0.3300   16.1770 C   0  0  0  0  0  0  0  0  0  0  0  0
   -5.4780    0.5770   17.5360 C   0  0  0  0  0  0  0  0  0  0  0  0
   -6.5810    0.2790   18.2800 C   0  0  0  0  0  0  0  0  0  0  0  0
   -6.5930    0.5070   19.6260 C   0  0  0  0  0  0  0  0  0  0  0  0
   -5.4720    1.0100   20.2180 C   0  0  0  0  0  0  0  0  0  0  0  0
  2  1  1  0
  3  2  1  0
  4  2  1  0
  5  4  2  0
 15  4  1  0
  6  5  1  0
  7  6  2  0
  8  7  1  0
 16  7  1  0
  9  8  1  0
 15  8  2  0
 10  9  2  0
 14  9  1  0
 11 10  1  0
 12 11  2  0
 13 12  1  0
 14 13  2  0
 17 16  1  0
 25 16  2  0
 18 17  2  0
 22 17  1  0
 19 18  1  0
 20 19  2  0
 21 20  1  0
 22 21  2  0
 23 22  1  0
 24 23  2  0
 25 24  1  0
A    1
C3
A    2
N2
A    3
C1
A    4
C4
A    5
N9
A    6
N8
A    7
C7
A    8
C6
A    9
C10
A   10
C21
A   11
C20
A   12
N19
A   13
C18
A   14
C17
A   15
C5
A   16
C11
A   17
C16
A   18
C25
A   19
C24
A   20
C23
A   21
C22
A   22
C15
A   23
C14
A   24
C13
A   25
C12
M  END
>  <Id>  (28) 
4F9Y_LM3_A_403

>  <ChainId>  (28) 
A

>  <AsymId>  (28) 
D

>  <SeqNum>  (28) 
403

>  <Name>  (28) 
N,N-dimethyl-6-(naphthalen-1-yl)-5-(pyridin-4-yl)pyridazin-3-amine

>  <SystematicName>  (28) 
N,N-dimethyl-6-naphthalen-1-yl-5-pyridin-4-yl-pyridazin-3-amine

>  <Synonyms>  (28) 


>  <Type>  (28) 
NON-POLYMER

>  <Formula>  (28) 
C21 H18 N4

>  <ObservedFormula>  (28) 
C21 N4

>  <MolecularWeight>  (28) 
326.394

>  <ModifiedDate>  (28) 
2013-05-31

>  <Parent>  (28) 


>  <OneLetterCode>  (28) 


>  <SubcomponentList>  (28) 


>  <AmbiguousFlag>  (28) 
N

>  <InsertionCode>  (28) 


>  <InstanceId>  (28) 
4F9Y_LM3_A_403

>  <ChemCompId>  (28) 
LM3

>  <PdbId>  (28) 
4F9Y

>  <ResidueNumber>  (28) 
403

>  <InChI>  (28) 
InChI=1S/C21H18N4/c1-25(2)20-14-19(16-10-12-22-13-11-16)21(24-23-20)18-9-5-7-15-6-3-4-8-17(15)18/h3-14H,1-2H3

>  <InChIKey>  (28) 
GEAPHVHHVPDTKQ-UHFFFAOYSA-N

>  <SMILES>  (28) 
CN(C)c1cc(c(nn1)c2cccc3c2cccc3)c4ccncc4

>  <MissingHeavyAtoms>  (28) 
0

>  <Model>  (28) 
1

>  <AltIds>  (28) 


>  <pKI>  (28) 
6.74

>  <ChemblID>  (28) 
-

>  <standardized_canonical_smiles>  (28) 
CN(C)c1cc(-c2ccncc2)c(-c2cccc3ccccc23)nn1

$$$$
3HL7_I47_A_401
     RDKit          3D

 28 31  0  0  0  0  0  0  0  0999 V2000
   35.5390   35.8440   20.0350 C   0  0  0  0  0  0  0  0  0  0  0  0
   35.0130   34.5920   20.1860 N   0  0  0  0  0  0  0  0  0  0  0  0
   34.3580   34.4200   21.3480 N   0  0  0  0  0  0  0  0  0  0  0  0
   34.4730   35.5890   21.9900 C   0  0  0  0  0  0  0  0  0  0  0  0
   35.2010   36.5220   21.2070 C   0  0  0  0  0  0  0  0  0  0  0  0
   36.2560   36.2100   18.8410 C   0  0  0  0  0  0  0  0  0  0  0  0
   35.4600   37.9150   21.5200 C   0  0  0  0  0  0  0  0  0  0  0  0
   33.8990   35.7960   23.3550 C   0  0  0  0  0  0  0  0  0  0  0  0
   35.7380   35.9390   17.5930 C   0  0  0  0  0  0  0  0  0  0  0  0
   36.4100   36.3400   16.4530 C   0  0  0  0  0  0  0  0  0  0  0  0
   37.6080   37.0090   16.5410 C   0  0  0  0  0  0  0  0  0  0  0  0
   38.1380   37.2580   17.7900 C   0  0  0  0  0  0  0  0  0  0  0  0
   37.4680   36.8610   18.9240 C   0  0  0  0  0  0  0  0  0  0  0  0
   35.7230   38.3440   22.8100 C   0  0  0  0  0  0  0  0  0  0  0  0
   35.8820   39.7000   22.9660 C   0  0  0  0  0  0  0  0  0  0  0  0
   35.7820   40.5970   21.9740 N   0  0  0  0  0  0  0  0  0  0  0  0
   35.5120   40.0750   20.7720 C   0  0  0  0  0  0  0  0  0  0  0  0
   35.3400   38.7720   20.4930 N   0  0  0  0  0  0  0  0  0  0  0  0
   32.5520   35.1500   23.6150 C   0  0  0  0  0  0  0  0  0  0  0  0
   32.0630   35.4080   25.0390 C   0  0  0  0  0  0  0  0  0  0  0  0
   33.0770   35.0640   26.0130 N   0  0  0  0  0  0  0  0  0  0  0  0
   34.4180   35.5740   25.8200 C   0  0  0  0  0  0  0  0  0  0  0  0
   34.9160   35.3600   24.3950 C   0  0  0  0  0  0  0  0  0  0  0  0
   38.4230   37.5510   15.1160 Cl  0  0  0  0  0  0  0  0  0  0  0  0
   32.7620   34.2800   27.1120 C   0  0  0  0  0  0  0  0  0  0  0  0
   32.0050   33.3140   27.0890 O   0  0  0  0  0  0  0  0  0  0  0  0
   33.4530   34.7420   28.3700 C   0  0  0  0  0  0  0  0  0  0  0  0
   32.9420   33.9600   29.4480 O   0  0  0  0  0  0  0  0  0  0  0  0
  2  1  1  0
  5  1  2  0
  6  1  1  0
  3  2  1  0
  4  3  2  0
  5  4  1  0
  8  4  1  0
  7  5  1  0
  9  6  2  0
 13  6  1  0
 14  7  2  0
 18  7  1  0
 19  8  1  0
 23  8  1  0
 10  9  1  0
 11 10  2  0
 12 11  1  0
 24 11  1  0
 13 12  2  0
 15 14  1  0
 16 15  2  0
 17 16  1  0
 18 17  2  0
 20 19  1  0
 21 20  1  0
 22 21  1  0
 25 21  1  0
 23 22  1  0
 26 25  2  0
 27 25  1  0
 28 27  1  0
A    1
C1
A    2
N2
A    3
N3
A    4
C4
A    5
C5
A    6
C6
A    7
C7
A    8
C8
A    9
C9
A   10
C10
A   11
C11
A   12
C12
A   13
C13
A   14
C14
A   15
C15
A   16
N16
A   17
C17
A   18
N18
A   19
C19
A   20
C20
A   21
N21
A   22
C22
A   23
C23
A   24
CL24
A   25
C25
A   26
O26
A   27
C27
A   28
O28
M  END
>  <Id>  (29) 
3HL7_I47_A_401

>  <ChainId>  (29) 
A

>  <AsymId>  (29) 
B

>  <SeqNum>  (29) 
401

>  <Name>  (29) 
2-{4-[5-(4-chlorophenyl)-4-pyrimidin-4-yl-1H-pyrazol-3-yl]piperidin-1-yl}-2-oxoethanol

>  <SystematicName>  (29) 
1-[4-[5-(4-chlorophenyl)-4-pyrimidin-4-yl-1H-pyrazol-3-yl]piperidin-1-yl]-2-hydroxy-ethanone

>  <Synonyms>  (29) 


>  <Type>  (29) 
NON-POLYMER

>  <Formula>  (29) 
C20 H20 Cl N5 O2

>  <ObservedFormula>  (29) 
C20 Cl N5 O2

>  <MolecularWeight>  (29) 
397.858

>  <ModifiedDate>  (29) 
2011-06-04

>  <Parent>  (29) 


>  <OneLetterCode>  (29) 


>  <SubcomponentList>  (29) 


>  <AmbiguousFlag>  (29) 
N

>  <InsertionCode>  (29) 


>  <InstanceId>  (29) 
3HL7_I47_A_401

>  <ChemCompId>  (29) 
I47

>  <PdbId>  (29) 
3HL7

>  <ResidueNumber>  (29) 
401

>  <InChI>  (29) 
InChI=1S/C20H20ClN5O2/c21-15-3-1-13(2-4-15)19-18(16-5-8-22-12-23-16)20(25-24-19)14-6-9-26(10-7-14)17(28)11-27/h1-5,8,12,14,27H,6-7,9-11H2,(H,24,25)

>  <InChIKey>  (29) 
CATQHDWESBRRQA-UHFFFAOYSA-N

>  <SMILES>  (29) 
c1cc(ccc1c2c(c(n[nH]2)C3CCN(CC3)C(=O)CO)c4ccncn4)Cl

>  <MissingHeavyAtoms>  (29) 
0

>  <Model>  (29) 
1

>  <AltIds>  (29) 


>  <pKI>  (29) 
7.64

>  <ChemblID>  (29) 
-

>  <standardized_canonical_smiles>  (29) 
O=C(CO)N1CCC(c2n[nH]c(-c3ccc(Cl)cc3)c2-c2ccncn2)CC1

$$$$
