2G9Q_1AB_A_998
     RDKit          3D

  9  9  0  0  0  0  0  0  0  0999 V2000
   31.1450   20.9550   25.4890 O   0  0  0  0  0  0  0  0  0  0  0  0
   32.5080   21.3430   25.7380 C   0  0  0  0  0  0  0  0  0  0  0  0
   32.7700   22.7760   25.2790 C   0  0  0  0  0  0  0  0  0  0  0  0
   33.1520   22.7920   23.9180 O   0  0  0  0  0  0  0  0  0  0  0  0
   33.9500   23.2260   26.1610 C   0  0  0  0  0  0  0  0  0  0  0  0
   34.0930   22.1650   27.1970 N   0  0  0  0  0  0  0  0  0  0  0  0
   32.7660   21.5110   27.2460 C   0  0  0  0  0  0  0  0  0  0  0  0
   32.8110   20.1940   28.0390 C   0  0  0  0  0  0  0  0  0  0  0  0
   33.7580   19.2940   27.4420 O   0  0  0  0  0  0  0  0  0  0  0  0
  2  1  1  0
  3  2  1  0
  7  2  1  0
  4  3  1  0
  5  3  1  0
  6  5  1  0
  7  6  1  0
  8  7  1  0
  9  8  1  0
A    1
O4
A    2
C4
A    3
C3
A    4
O3
A    5
C2
A    6
N1
A    7
C5
A    8
C6
A    9
O6
M  END
>  <Id>  (1) 
2G9Q_1AB_A_998

>  <ChainId>  (1) 
A

>  <AsymId>  (1) 
E

>  <SeqNum>  (1) 
998

>  <Name>  (1) 
1,4-DIDEOXY-1,4-IMINO-D-ARABINITOL

>  <SystematicName>  (1) 
(2R,3R,4R)-2-(hydroxymethyl)pyrrolidine-3,4-diol

>  <Synonyms>  (1) 


>  <Type>  (1) 
NON-POLYMER

>  <Formula>  (1) 
C5 H11 N O3

>  <ObservedFormula>  (1) 
C5 N O3

>  <MolecularWeight>  (1) 
133.146

>  <ModifiedDate>  (1) 
2011-06-04

>  <Parent>  (1) 


>  <OneLetterCode>  (1) 


>  <SubcomponentList>  (1) 


>  <AmbiguousFlag>  (1) 
N

>  <InsertionCode>  (1) 


>  <InstanceId>  (1) 
2G9Q_1AB_A_998

>  <ChemCompId>  (1) 
1AB

>  <PdbId>  (1) 
2G9Q

>  <ResidueNumber>  (1) 
998

>  <InChI>  (1) 
InChI=1S/C5H11NO3/c7-2-3-5(9)4(8)1-6-3/h3-9H,1-2H2/t3-,4-,5-/m1/s1

>  <InChIKey>  (1) 
OQEBIHBLFRADNM-UOWFLXDJSA-N

>  <SMILES>  (1) 
C1[C@H]([C@@H]([C@H](N1)CO)O)O

>  <MissingHeavyAtoms>  (1) 
0

>  <Model>  (1) 
1

>  <AltIds>  (1) 


>  <pKI>  (1) 
6.42

>  <ChemblID>  (1) 
CHEMBL215137

>  <standardized_canonical_smiles>  (1) 
OC[C@H]1NC[C@@H](O)[C@@H]1O

$$$$
1ABB_IMP_D_920
     RDKit          3D

 23 25  0  0  0  0  0  0  0  0999 V2000
   73.8960   64.0940   33.7980 P   0  0  0  0  0  0  0  0  0  0  0  0
   72.5830   64.6620   33.4520 O   0  0  0  0  0  0  0  0  0  0  0  0
   74.1600   62.7640   33.1530 O   0  0  0  0  0  0  0  0  0  0  0  0
   74.0400   64.0800   35.2790 O   0  0  0  0  0  0  0  0  0  0  0  0
   74.9690   65.1050   33.1540 O   0  0  0  0  0  0  0  0  0  0  0  0
   75.2350   65.1470   31.7240 C   0  0  0  0  0  0  0  0  0  0  0  0
   76.3320   66.1890   31.3410 C   0  0  0  0  0  0  0  0  0  0  0  0
   75.7620   67.3600   31.8250 O   0  0  0  0  0  0  0  0  0  0  0  0
   77.7670   66.1110   31.9230 C   0  0  0  0  0  0  0  0  0  0  0  0
   78.6940   65.4440   31.0120 O   0  0  0  0  0  0  0  0  0  0  0  0
   78.1490   67.6060   31.9710 C   0  0  0  0  0  0  0  0  0  0  0  0
   78.5870   68.1220   30.7130 O   0  0  0  0  0  0  0  0  0  0  0  0
   76.8090   68.2530   32.1790 C   0  0  0  0  0  0  0  0  0  0  0  0
   76.4540   68.6790   33.5370 N   0  0  0  0  0  0  0  0  0  0  0  0
   75.9700   67.9160   34.5720 C   0  0  0  0  0  0  0  0  0  0  0  0
   75.6120   68.6230   35.6140 N   0  0  0  0  0  0  0  0  0  0  0  0
   75.8790   69.9300   35.2470 C   0  0  0  0  0  0  0  0  0  0  0  0
   75.6530   71.1310   35.8860 C   0  0  0  0  0  0  0  0  0  0  0  0
   75.1550   71.2380   37.0870 O   0  0  0  0  0  0  0  0  0  0  0  0
   75.9770   72.2480   35.2360 N   0  0  0  0  0  0  0  0  0  0  0  0
   76.4660   72.1860   33.9840 C   0  0  0  0  0  0  0  0  0  0  0  0
   76.7340   71.1150   33.2540 N   0  0  0  0  0  0  0  0  0  0  0  0
   76.3850   69.9900   33.9610 C   0  0  0  0  0  0  0  0  0  0  0  0
  2  1  2  0
  3  1  1  0
  4  1  1  0
  5  1  1  0
  6  5  1  0
  7  6  1  0
  8  7  1  0
  9  7  1  0
 13  8  1  0
 10  9  1  0
 11  9  1  0
 12 11  1  0
 13 11  1  0
 14 13  1  0
 15 14  1  0
 23 14  1  0
 16 15  2  0
 17 16  1  0
 18 17  1  0
 23 17  2  0
 19 18  2  0
 20 18  1  0
 21 20  1  0
 22 21  2  0
 23 22  1  0
A    1
P
A    2
O1P
A    3
O2P
A    4
O3P
A    5
O5'
A    6
C5'
A    7
C4'
A    8
O4'
A    9
C3'
A   10
O3'
A   11
C2'
A   12
O2'
A   13
C1'
A   14
N9
A   15
C8
A   16
N7
A   17
C5
A   18
C6
A   19
O6
A   20
N1
A   21
C2
A   22
N3
A   23
C4
M  END
>  <Id>  (2) 
1ABB_IMP_D_920

>  <ChainId>  (2) 
D

>  <AsymId>  (2) 
P

>  <SeqNum>  (2) 
920

>  <Name>  (2) 
INOSINIC ACID

>  <SystematicName>  (2) 
[(2R,3S,4R,5R)-3,4-dihydroxy-5-(6-oxo-1H-purin-9-yl)oxolan-2-yl]methyl dihydrogen phosphate

>  <Synonyms>  (2) 


>  <Type>  (2) 
NON-POLYMER

>  <Formula>  (2) 
C10 H13 N4 O8 P

>  <ObservedFormula>  (2) 
P C10 N4 O8

>  <MolecularWeight>  (2) 
348.206

>  <ModifiedDate>  (2) 
2012-01-05

>  <Parent>  (2) 
G

>  <OneLetterCode>  (2) 


>  <SubcomponentList>  (2) 


>  <AmbiguousFlag>  (2) 
N

>  <InsertionCode>  (2) 


>  <InstanceId>  (2) 
1ABB_IMP_D_920

>  <ChemCompId>  (2) 
IMP

>  <PdbId>  (2) 
1ABB

>  <ResidueNumber>  (2) 
920

>  <InChI>  (2) 
InChI=1S/C10H13N4O8P/c15-6-4(1-21-23(18,19)20)22-10(7(6)16)14-3-13-5-8(14)11-2-12-9(5)17/h2-4,6-7,10,15-16H,1H2,(H,11,12,17)(H2,18,19,20)/t4-,6-,7-,10-/m1/s1

>  <InChIKey>  (2) 
GRSZFWQUAKGDAV-KQYNXXCUSA-N

>  <SMILES>  (2) 
c1nc2c(n1[C@H]3[C@@H]([C@@H]([C@H](O3)COP(=O)(O)O)O)O)N=CNC2=O

>  <MissingHeavyAtoms>  (2) 
0

>  <Model>  (2) 
1

>  <AltIds>  (2) 


>  <pKI>  (2) 
6.42

>  <ChemblID>  (2) 
CHEMBL215137

>  <standardized_canonical_smiles>  (2) 
OC[C@H]1NC[C@@H](O)[C@@H]1O

$$$$
1ABB_SO4_D_900
     RDKit          3D

  5  4  0  0  0  0  0  0  0  0999 V2000
   84.2040   77.1380   30.1220 S   0  0  0  0  0  0  0  0  0  0  0  0
   85.2000   76.3420   30.8190 O   0  0  0  0  0  0  0  0  0  0  0  0
   82.9150   76.8970   30.7430 O   0  0  0  0  0  0  0  0  0  0  0  0
   84.2040   76.7770   28.7020 O   0  0  0  0  0  0  0  0  0  0  0  0
   84.6150   78.5450   30.3040 O   0  0  0  0  0  0  0  0  0  0  0  0
  2  1  2  0
  3  1  2  0
  4  1  1  0
  5  1  1  0
M  CHG  2   4  -1   5  -1
A    1
S
A    2
O1
A    3
O2
A    4
O3
A    5
O4
M  END
>  <Id>  (3) 
1ABB_SO4_D_900

>  <ChainId>  (3) 
D

>  <AsymId>  (3) 
N

>  <SeqNum>  (3) 
900

>  <Name>  (3) 
SULFATE ION

>  <SystematicName>  (3) 
sulfate

>  <Synonyms>  (3) 


>  <Type>  (3) 
NON-POLYMER

>  <Formula>  (3) 
O4 S

>  <ObservedFormula>  (3) 
S O4

>  <MolecularWeight>  (3) 
96.063

>  <ModifiedDate>  (3) 
2011-06-04

>  <Parent>  (3) 


>  <OneLetterCode>  (3) 


>  <SubcomponentList>  (3) 


>  <AmbiguousFlag>  (3) 
N

>  <InsertionCode>  (3) 


>  <InstanceId>  (3) 
1ABB_SO4_D_900

>  <ChemCompId>  (3) 
SO4

>  <PdbId>  (3) 
1ABB

>  <ResidueNumber>  (3) 
900

>  <InChI>  (3) 
InChI=1S/H2O4S/c1-5(2,3)4/h(H2,1,2,3,4)/p-2

>  <InChIKey>  (3) 
QAOWNCQODCNURD-UHFFFAOYSA-L

>  <SMILES>  (3) 
[O-]S(=O)(=O)[O-]

>  <MissingHeavyAtoms>  (3) 
0

>  <Model>  (3) 
1

>  <AltIds>  (3) 


>  <pKI>  (3) 
6.42

>  <ChemblID>  (3) 
CHEMBL215137

>  <standardized_canonical_smiles>  (3) 
OC[C@H]1NC[C@@H](O)[C@@H]1O

$$$$
1ABB_PDP_D_934
     RDKit          3D

 19 19  0  0  0  0  0  0  0  0999 V2000
   60.1780   47.5330    8.7280 O   0  0  0  0  0  0  0  0  0  0  0  0
   56.8340   44.4140    9.8100 O   0  0  0  0  0  0  0  0  0  0  0  0
   57.7440   46.3680    8.5030 O   0  0  0  0  0  0  0  0  0  0  0  0
   58.7320   47.7730    6.6760 O   0  0  0  0  0  0  0  0  0  0  0  0
   58.0440   45.2650    9.7590 P   0  0  0  0  0  0  0  0  0  0  0  0
   64.9710   47.8270    9.6190 C   0  0  0  0  0  0  0  0  0  0  0  0
   65.4290   49.9240    8.6700 O   0  0  0  0  0  0  0  0  0  0  0  0
   64.5380   49.0190    9.1480 C   0  0  0  0  0  0  0  0  0  0  0  0
   60.8130   48.5410    9.6200 C   0  0  0  0  0  0  0  0  0  0  0  0
   59.2310   44.4640    9.3110 O   0  0  0  0  0  0  0  0  0  0  0  0
   66.3940   47.4930    9.5490 C   0  0  0  0  0  0  0  0  0  0  0  0
   62.7670   47.1770   10.1830 C   0  0  0  0  0  0  0  0  0  0  0  0
   62.2960   48.3660    9.7030 C   0  0  0  0  0  0  0  0  0  0  0  0
   58.6960   47.7210    8.1530 P   0  0  0  0  0  0  0  0  0  0  0  0
   62.7760   50.6200    8.6870 C   0  0  0  0  0  0  0  0  0  0  0  0
   64.0960   46.8990   10.1150 N   0  0  0  0  0  0  0  0  0  0  0  0
   58.0540   48.9280    8.7360 O   0  0  0  0  0  0  0  0  0  0  0  0
   58.1890   46.0920   10.9860 O   0  0  0  0  0  0  0  0  0  0  0  0
   63.2080   49.3180    9.2080 C   0  0  0  0  0  0  0  0  0  0  0  0
  5 10  1  0
  8 19  2  0
  5 18  1  0
 14  4  2  0
 16  6  2  0
  1 14  1  0
 13 12  2  0
 14  3  1  0
 16 12  1  0
 19 13  1  0
  9  1  1  0
 14 17  1  0
  6  8  1  0
  6 11  1  0
  3  5  1  0
 19 15  1  0
 13  9  1  0
  8  7  1  0
  5  2  2  0
A    1
O5A
A    2
O1B
A    3
O3A
A    4
O1A
A    5
PB
A    6
C2
A    7
O3
A    8
C3
A    9
C5A
A   10
O2B
A   11
C2A
A   12
C6
A   13
C5
A   14
PA
A   15
C4A
A   16
N1
A   17
O2A
A   18
O3B
A   19
C4
M  END
>  <InstanceId>  (4) 
1ABB_PDP_D_934

>  <ChemCompId>  (4) 
PDP

>  <PdbId>  (4) 
1ABB

>  <ChainId>  (4) 
D

>  <ResidueNumber>  (4) 
934

>  <InsertionCode>  (4) 


>  <Model>  (4) 
1

>  <AltIds>  (4) 


>  <MissingHeavyAtoms>  (4) 
1

>  <ObservedFormula>  (4) 
C8 N O8 P2

>  <AsymId>  (4) 
O

>  <SeqNum>  (4) 
934

>  <Name>  (4) 
PYRIDOXAL-5'-DIPHOSPHATE

>  <SystematicName>  (4) 
(5-hydroxy-4-methanoyl-6-methyl-pyridin-3-yl)methyl phosphono hydrogen phosphate

>  <Synonyms>  (4) 


>  <Type>  (4) 
NON-POLYMER

>  <Formula>  (4) 
C8 H11 N O9 P2

>  <MolecularWeight>  (4) 
327.122

>  <ModifiedDate>  (4) 
2011-06-04

>  <Parent>  (4) 


>  <OneLetterCode>  (4) 


>  <SubcomponentList>  (4) 


>  <AmbiguousFlag>  (4) 
N

>  <InChI>  (4) 
null

>  <InChIKey>  (4) 
null

>  <SMILES>  (4) 
Cc1c(c(c(cn1)CO[P@](=O)(O)OP(=O)(O)O)C=O)O

>  <pKI>  (4) 
6.42

>  <ChemblID>  (4) 
CHEMBL215137

>  <standardized_canonical_smiles>  (4) 
OC[C@H]1NC[C@@H](O)[C@@H]1O

$$$$
2G9V_IFM_A_998
     RDKit          3D

 10 10  0  0  0  0  0  0  0  0999 V2000
   31.5400   20.7970   25.2760 O   0  0  0  0  0  0  0  0  0  0  0  0
   32.7190   21.3240   25.9110 C   0  0  0  0  0  0  0  0  0  0  0  0
   32.9430   22.7770   25.4470 C   0  0  0  0  0  0  0  0  0  0  0  0
   33.1770   22.7770   24.0370 O   0  0  0  0  0  0  0  0  0  0  0  0
   34.1500   23.4190   26.1810 C   0  0  0  0  0  0  0  0  0  0  0  0
   33.9860   23.3020   27.6580 N   0  0  0  0  0  0  0  0  0  0  0  0
   33.8250   21.8890   28.1250 C   0  0  0  0  0  0  0  0  0  0  0  0
   32.6080   21.2270   27.4560 C   0  0  0  0  0  0  0  0  0  0  0  0
   32.4560   19.7810   27.9600 C   0  0  0  0  0  0  0  0  0  0  0  0
   33.4890   18.9320   27.4220 O   0  0  0  0  0  0  0  0  0  0  0  0
  2  1  1  0
  3  2  1  0
  8  2  1  0
  4  3  1  0
  5  3  1  0
  6  5  1  0
  7  6  1  0
  8  7  1  0
  9  8  1  0
 10  9  1  0
A    1
O4
A    2
C4
A    3
C3
A    4
O3
A    5
C2
A    6
N
A    7
C1
A    8
C5
A    9
C6
A   10
O6
M  END
>  <Id>  (5) 
2G9V_IFM_A_998

>  <ChainId>  (5) 
A

>  <AsymId>  (5) 
D

>  <SeqNum>  (5) 
998

>  <Name>  (5) 
5-HYDROXYMETHYL-3,4-DIHYDROXYPIPERIDINE

>  <SystematicName>  (5) 
(3R,4R,5R)-5-(hydroxymethyl)piperidine-3,4-diol

>  <Synonyms>  (5) 
Afegostat, isofagomine, (3R,4R,5R)-5-(HYDROXYMETHYL)PIPERIDINE-3,4-DIOL

>  <Type>  (5) 
NON-POLYMER

>  <Formula>  (5) 
C6 H13 N O3

>  <ObservedFormula>  (5) 
C6 N O3

>  <MolecularWeight>  (5) 
147.172

>  <ModifiedDate>  (5) 
2015-06-29

>  <Parent>  (5) 


>  <OneLetterCode>  (5) 


>  <SubcomponentList>  (5) 


>  <AmbiguousFlag>  (5) 
N

>  <InsertionCode>  (5) 


>  <InstanceId>  (5) 
2G9V_IFM_A_998

>  <ChemCompId>  (5) 
IFM

>  <PdbId>  (5) 
2G9V

>  <ResidueNumber>  (5) 
998

>  <InChI>  (5) 
InChI=1S/C6H13NO3/c8-3-4-1-7-2-5(9)6(4)10/h4-10H,1-3H2/t4-,5-,6-/m1/s1

>  <InChIKey>  (5) 
QPYJXFZUIJOGNX-HSUXUTPPSA-N

>  <SMILES>  (5) 
C1[C@@H]([C@H]([C@@H](CN1)O)O)CO

>  <MissingHeavyAtoms>  (5) 
0

>  <Model>  (5) 
1

>  <AltIds>  (5) 


>  <pKI>  (5) 
5.28

>  <ChemblID>  (5) 
CHEMBL206468

>  <standardized_canonical_smiles>  (5) 
OC[C@H]1CNC[C@@H](O)[C@@H]1O

$$$$
3ZCT_VMP_A_1840
     RDKit          3D

 27 29  0  0  0  0  0  0  0  0999 V2000
   36.4850   26.4440   32.2660 C   0  0  0  0  0  0  0  0  0  0  0  0
   37.5630   26.9340   33.0090 C   0  0  0  0  0  0  0  0  0  0  0  0
   38.6180   27.5780   32.3570 C   0  0  0  0  0  0  0  0  0  0  0  0
   39.6940   28.0700   33.1000 C   0  0  0  0  0  0  0  0  0  0  0  0
   39.7130   27.9200   34.4900 C   0  0  0  0  0  0  0  0  0  0  0  0
   38.6630   27.2800   35.1480 C   0  0  0  0  0  0  0  0  0  0  0  0
   37.5840   26.7870   34.4050 C   0  0  0  0  0  0  0  0  0  0  0  0
   36.5250   26.1510   35.0620 C   0  0  0  0  0  0  0  0  0  0  0  0
   35.4530   25.6630   34.3160 C   0  0  0  0  0  0  0  0  0  0  0  0
   35.4310   25.8010   32.9260 C   0  0  0  0  0  0  0  0  0  0  0  0
   34.2310   25.2530   32.1380 C   0  0  0  0  0  0  0  0  0  0  0  0
   33.0960   25.3810   32.5990 O   0  0  0  0  0  0  0  0  0  0  0  0
   34.5310   24.6640   30.9660 N   0  0  0  0  0  0  0  0  0  0  0  0
   33.6260   24.1120   30.1340 C   0  0  0  0  0  0  0  0  0  0  0  0
   32.4130   24.1200   30.3650 O   0  0  0  0  0  0  0  0  0  0  0  0
   34.1150   23.5630   29.0150 N   0  0  0  0  0  0  0  0  0  0  0  0
   33.2110   22.9270   28.0200 C   0  0  0  0  0  0  0  0  0  0  0  0
   33.1660   21.4910   28.2730 O   0  0  0  0  0  0  0  0  0  0  0  0
   32.1120   20.8690   27.5040 C   0  0  0  0  0  0  0  0  0  0  0  0
   32.0610   19.3970   27.9440 C   0  0  0  0  0  0  0  0  0  0  0  0
   33.1450   18.6750   27.3490 O   0  0  0  0  0  0  0  0  0  0  0  0
   32.3560   21.0340   25.9820 C   0  0  0  0  0  0  0  0  0  0  0  0
   31.2140   20.5550   25.2640 O   0  0  0  0  0  0  0  0  0  0  0  0
   32.6390   22.5040   25.6020 C   0  0  0  0  0  0  0  0  0  0  0  0
   33.1250   22.5700   24.2610 O   0  0  0  0  0  0  0  0  0  0  0  0
   33.6700   23.1360   26.5670 C   0  0  0  0  0  0  0  0  0  0  0  0
   33.8410   24.5320   26.2960 O   0  0  0  0  0  0  0  0  0  0  0  0
  2  1  2  0
 10  1  1  0
  3  2  1  0
  7  2  1  0
  4  3  2  0
  5  4  1  0
  6  5  2  0
  7  6  1  0
  8  7  2  0
  9  8  1  0
 10  9  2  0
 11 10  1  0
 12 11  2  0
 13 11  1  0
 14 13  1  0
 15 14  2  0
 16 14  1  0
 17 16  1  0
 18 17  1  0
 26 17  1  0
 19 18  1  0
 20 19  1  0
 22 19  1  0
 21 20  1  0
 23 22  1  0
 24 22  1  0
 25 24  1  0
 26 24  1  0
 27 26  1  0
A    1
C10
A    2
C11
A    3
C24
A    4
C26
A    5
C27
A    6
C25
A    7
C12
A    8
C13
A    9
C14
A   10
C9
A   11
C8
A   12
O8
A   13
N2
A   14
C7
A   15
O7
A   16
N1
A   17
C1
A   18
O5
A   19
C5
A   20
C6
A   21
O6
A   22
C4
A   23
O4
A   24
C3
A   25
O3
A   26
C2
A   27
O2
M  END
>  <Id>  (6) 
3ZCT_VMP_A_1840

>  <ChainId>  (6) 
A

>  <AsymId>  (6) 
E

>  <SeqNum>  (6) 
1840

>  <Name>  (6) 
N-[[(2R,3R,4S,5S,6R)-6-(hydroxymethyl)-3,4,5-tris(oxidanyl)oxan-2-yl]carbamoyl]naphthalene-2-carboxamide

>  <SystematicName>  (6) 
N-[[(2R,3R,4S,5S,6R)-6-(hydroxymethyl)-3,4,5-tris(oxidanyl)oxan-2-yl]carbamoyl]naphthalene-2-carboxamide

>  <Synonyms>  (6) 


>  <Type>  (6) 
non-polymer

>  <Formula>  (6) 
C18 H20 N2 O7

>  <ObservedFormula>  (6) 
C18 N2 O7

>  <MolecularWeight>  (6) 
376.361

>  <ModifiedDate>  (6) 
2014-09-05

>  <Parent>  (6) 


>  <OneLetterCode>  (6) 


>  <SubcomponentList>  (6) 


>  <AmbiguousFlag>  (6) 
N

>  <InsertionCode>  (6) 


>  <InstanceId>  (6) 
3ZCT_VMP_A_1840

>  <ChemCompId>  (6) 
VMP

>  <PdbId>  (6) 
3ZCT

>  <ResidueNumber>  (6) 
1840

>  <InChI>  (6) 
InChI=1S/C18H20N2O7/c21-8-12-13(22)14(23)15(24)17(27-12)20-18(26)19-16(25)11-6-5-9-3-1-2-4-10(9)7-11/h1-7,12-15,17,21-24H,8H2,(H2,19,20,25,26)/t12-,13-,14+,15-,17-/m1/s1

>  <InChIKey>  (6) 
CWTXJPICSREUOK-OWVAZHOYSA-N

>  <SMILES>  (6) 
c1ccc2cc(ccc2c1)C(=O)NC(=O)N[C@H]3[C@@H]([C@H]([C@@H]([C@H](O3)CO)O)O)O

>  <MissingHeavyAtoms>  (6) 
0

>  <Model>  (6) 
1

>  <AltIds>  (6) 


>  <pKI>  (6) 
6.46

>  <ChemblID>  (6) 
CHEMBL490001

>  <standardized_canonical_smiles>  (6) 
O=C(NC(=O)c1ccc2ccccc2c1)N[C@@H]1O[C@H](CO)[C@@H](O)[C@H](O)[C@H]1O

$$$$
3ZCS_CAW_A_1839
     RDKit          3D

 27 29  0  0  0  0  0  0  0  0999 V2000
   35.3450   25.7070   34.2720 C   0  0  0  0  0  0  0  0  0  0  0  0
   36.3310   26.1690   35.1440 C   0  0  0  0  0  0  0  0  0  0  0  0
   37.4120   26.8850   34.6250 C   0  0  0  0  0  0  0  0  0  0  0  0
   37.4840   27.1330   33.2510 C   0  0  0  0  0  0  0  0  0  0  0  0
   38.5610   27.8550   32.7510 C   0  0  0  0  0  0  0  0  0  0  0  0
   38.6480   28.1130   31.3870 C   0  0  0  0  0  0  0  0  0  0  0  0
   37.6680   27.6470   30.5140 C   0  0  0  0  0  0  0  0  0  0  0  0
   36.5900   26.9300   31.0140 C   0  0  0  0  0  0  0  0  0  0  0  0
   36.4860   26.6650   32.3780 C   0  0  0  0  0  0  0  0  0  0  0  0
   35.4040   25.9390   32.8910 C   0  0  0  0  0  0  0  0  0  0  0  0
   34.3500   25.4430   32.0920 C   0  0  0  0  0  0  0  0  0  0  0  0
   33.1900   25.6400   32.4760 O   0  0  0  0  0  0  0  0  0  0  0  0
   34.7110   24.7650   30.9490 N   0  0  0  0  0  0  0  0  0  0  0  0
   33.7890   24.2080   30.1070 C   0  0  0  0  0  0  0  0  0  0  0  0
   32.5780   24.2730   30.3260 O   0  0  0  0  0  0  0  0  0  0  0  0
   34.2420   23.5790   28.9940 N   0  0  0  0  0  0  0  0  0  0  0  0
   33.3320   22.9420   28.0160 C   0  0  0  0  0  0  0  0  0  0  0  0
   33.3010   21.5070   28.2470 O   0  0  0  0  0  0  0  0  0  0  0  0
   32.2100   20.8990   27.5210 C   0  0  0  0  0  0  0  0  0  0  0  0
   32.1540   19.4170   27.9340 C   0  0  0  0  0  0  0  0  0  0  0  0
   33.2690   18.7020   27.3840 O   0  0  0  0  0  0  0  0  0  0  0  0
   32.4350   21.0450   25.9870 C   0  0  0  0  0  0  0  0  0  0  0  0
   31.2650   20.5740   25.2750 O   0  0  0  0  0  0  0  0  0  0  0  0
   32.6910   22.5290   25.6070 C   0  0  0  0  0  0  0  0  0  0  0  0
   33.1230   22.5800   24.2390 O   0  0  0  0  0  0  0  0  0  0  0  0
   33.7730   23.1590   26.5450 C   0  0  0  0  0  0  0  0  0  0  0  0
   33.9320   24.5590   26.2530 O   0  0  0  0  0  0  0  0  0  0  0  0
  2  1  2  0
 10  1  1  0
  3  2  1  0
  4  3  2  0
  5  4  1  0
  9  4  1  0
  6  5  2  0
  7  6  1  0
  8  7  2  0
  9  8  1  0
 10  9  2  0
 11 10  1  0
 12 11  2  0
 13 11  1  0
 14 13  1  0
 15 14  2  0
 16 14  1  0
 17 16  1  0
 18 17  1  0
 26 17  1  0
 19 18  1  0
 20 19  1  0
 22 19  1  0
 21 20  1  0
 23 22  1  0
 24 22  1  0
 25 24  1  0
 26 24  1  0
 27 26  1  0
A    1
C9
A    2
C14
A    3
C13
A    4
C12
A    5
C18
A    6
C17
A    7
C16
A    8
C15
A    9
C11
A   10
C10
A   11
C8
A   12
O8
A   13
N2
A   14
C7
A   15
O7
A   16
N1
A   17
C1
A   18
O5
A   19
C5
A   20
C6
A   21
O6
A   22
C4
A   23
O4
A   24
C3
A   25
O3
A   26
C2
A   27
O2
M  END
>  <Id>  (7) 
3ZCS_CAW_A_1839

>  <ChainId>  (7) 
A

>  <AsymId>  (7) 
D

>  <SeqNum>  (7) 
1839

>  <Name>  (7) 
N-[[(2R,3R,4S,5S,6R)-6-(hydroxymethyl)-3,4,5-tris(oxidanyl)oxan-2-yl]carbamoyl]naphthalene-1-carboxamide

>  <SystematicName>  (7) 
N-[[(2R,3R,4S,5S,6R)-6-(hydroxymethyl)-3,4,5-tris(oxidanyl)oxan-2-yl]carbamoyl]naphthalene-1-carboxamide

>  <Synonyms>  (7) 


>  <Type>  (7) 
non-polymer

>  <Formula>  (7) 
C18 H20 N2 O7

>  <ObservedFormula>  (7) 
C18 N2 O7

>  <MolecularWeight>  (7) 
376.361

>  <ModifiedDate>  (7) 
2014-09-05

>  <Parent>  (7) 


>  <OneLetterCode>  (7) 


>  <SubcomponentList>  (7) 


>  <AmbiguousFlag>  (7) 
N

>  <InsertionCode>  (7) 


>  <InstanceId>  (7) 
3ZCS_CAW_A_1839

>  <ChemCompId>  (7) 
CAW

>  <PdbId>  (7) 
3ZCS

>  <ResidueNumber>  (7) 
1839

>  <InChI>  (7) 
InChI=1S/C18H20N2O7/c21-8-12-13(22)14(23)15(24)17(27-12)20-18(26)19-16(25)11-7-3-5-9-4-1-2-6-10(9)11/h1-7,12-15,17,21-24H,8H2,(H2,19,20,25,26)/t12-,13-,14+,15-,17-/m1/s1

>  <InChIKey>  (7) 
VEHFJUDJKOIMSO-OWVAZHOYSA-N

>  <SMILES>  (7) 
c1ccc2c(c1)cccc2C(=O)NC(=O)N[C@H]3[C@@H]([C@H]([C@@H]([C@H](O3)CO)O)O)O

>  <MissingHeavyAtoms>  (7) 
0

>  <Model>  (7) 
1

>  <AltIds>  (7) 


>  <pKI>  (7) 
4.98

>  <ChemblID>  (7) 
CHEMBL490000

>  <standardized_canonical_smiles>  (7) 
O=C(NC(=O)c1cccc2ccccc12)N[C@@H]1O[C@H](CO)[C@@H](O)[C@H](O)[C@H]1O

$$$$
1K06_BZD_A_920
     RDKit          3D

 23 24  0  0  0  0  0  0  0  0999 V2000
   19.3490   12.5700   58.3640 O   0  0  0  0  0  0  0  0  0  0  0  0
   18.3090   13.2070   57.5630 C   0  0  0  0  0  0  0  0  0  0  0  0
   16.9230   13.1870   58.2350 C   0  0  0  0  0  0  0  0  0  0  0  0
   15.9490   13.8280   57.3860 O   0  0  0  0  0  0  0  0  0  0  0  0
   17.0250   13.8900   59.6210 C   0  0  0  0  0  0  0  0  0  0  0  0
   15.7370   13.8800   60.2500 O   0  0  0  0  0  0  0  0  0  0  0  0
   18.1100   13.1370   60.4720 C   0  0  0  0  0  0  0  0  0  0  0  0
   18.2000   13.7580   61.7690 O   0  0  0  0  0  0  0  0  0  0  0  0
   19.4970   13.2020   59.6820 C   0  0  0  0  0  0  0  0  0  0  0  0
   20.6420   12.4650   60.4490 C   0  0  0  0  0  0  0  0  0  0  0  0
   20.3870   11.0510   60.4650 O   0  0  0  0  0  0  0  0  0  0  0  0
   18.1900   12.5670   56.2830 N   0  0  0  0  0  0  0  0  0  0  0  0
   18.7010   13.1200   55.1520 C   0  0  0  0  0  0  0  0  0  0  0  0
   19.2650   14.2290   55.2530 O   0  0  0  0  0  0  0  0  0  0  0  0
   18.5620   12.5050   53.9160 N   0  0  0  0  0  0  0  0  0  0  0  0
   17.9510   11.2920   53.6650 C   0  0  0  0  0  0  0  0  0  0  0  0
   17.4300   10.6230   54.5480 O   0  0  0  0  0  0  0  0  0  0  0  0
   17.8630   10.7060   52.2650 C   0  0  0  0  0  0  0  0  0  0  0  0
   17.2040    9.4290   52.0180 C   0  0  0  0  0  0  0  0  0  0  0  0
   17.1200    8.8900   50.6960 C   0  0  0  0  0  0  0  0  0  0  0  0
   17.7140    9.6020   49.5930 C   0  0  0  0  0  0  0  0  0  0  0  0
   18.3670   10.8740   49.8200 C   0  0  0  0  0  0  0  0  0  0  0  0
   18.4550   11.4190   51.1500 C   0  0  0  0  0  0  0  0  0  0  0  0
  2  1  1  0
  9  1  1  0
  3  2  1  0
 12  2  1  0
  4  3  1  0
  5  3  1  0
  6  5  1  0
  7  5  1  0
  8  7  1  0
  9  7  1  0
 10  9  1  0
 11 10  1  0
 13 12  1  0
 14 13  2  0
 15 13  1  0
 16 15  1  0
 17 16  2  0
 18 16  1  0
 19 18  2  0
 23 18  1  0
 20 19  1  0
 21 20  2  0
 22 21  1  0
 23 22  2  0
A    1
O5
A    2
C1
A    3
C2
A    4
O2
A    5
C3
A    6
O3
A    7
C4
A    8
O4
A    9
C5
A   10
C6
A   11
O6
A   12
N1
A   13
C7
A   14
O7
A   15
N2
A   16
C8
A   17
O8
A   18
C9
A   19
C10
A   20
C11
A   21
C12
A   22
C13
A   23
C14
M  END
>  <Id>  (8) 
1K06_BZD_A_920

>  <ChainId>  (8) 
A

>  <AsymId>  (8) 
C

>  <SeqNum>  (8) 
920

>  <Name>  (8) 
N-BENZOYL-N'-BETA-D-GLUCOPYRANOSYL UREA

>  <SystematicName>  (8) 
N-[[(2R,3R,4S,5S,6R)-3,4,5-trihydroxy-6-(hydroxymethyl)oxan-2-yl]carbamoyl]benzamide

>  <Synonyms>  (8) 


>  <Type>  (8) 
NON-POLYMER

>  <Formula>  (8) 
C14 H18 N2 O7

>  <ObservedFormula>  (8) 
C14 N2 O7

>  <MolecularWeight>  (8) 
326.302

>  <ModifiedDate>  (8) 
2011-06-04

>  <Parent>  (8) 


>  <OneLetterCode>  (8) 


>  <SubcomponentList>  (8) 


>  <AmbiguousFlag>  (8) 
N

>  <InsertionCode>  (8) 


>  <InstanceId>  (8) 
1K06_BZD_A_920

>  <ChemCompId>  (8) 
BZD

>  <PdbId>  (8) 
1K06

>  <ResidueNumber>  (8) 
920

>  <InChI>  (8) 
InChI=1S/C14H18N2O7/c17-6-8-9(18)10(19)11(20)13(23-8)16-14(22)15-12(21)7-4-2-1-3-5-7/h1-5,8-11,13,17-20H,6H2,(H2,15,16,21,22)/t8-,9-,10+,11-,13-/m1/s1

>  <InChIKey>  (8) 
JSBCZGSPFATCOV-BZNQNGANSA-N

>  <SMILES>  (8) 
c1ccc(cc1)C(=O)NC(=O)N[C@H]2[C@@H]([C@H]([C@@H]([C@H](O2)CO)O)O)O

>  <MissingHeavyAtoms>  (8) 
0

>  <Model>  (8) 
1

>  <AltIds>  (8) 


>  <pKI>  (8) 
5.34

>  <ChemblID>  (8) 
CHEMBL489799

>  <standardized_canonical_smiles>  (8) 
O=C(NC(=O)c1ccccc1)N[C@@H]1O[C@H](CO)[C@@H](O)[C@H](O)[C@H]1O

$$$$
1K08_BZD_A_920
     RDKit          3D

 23 24  0  0  0  0  0  0  0  0999 V2000
   19.3760   12.5600   58.3650 O   0  0  0  0  0  0  0  0  0  0  0  0
   18.3360   13.2310   57.5590 C   0  0  0  0  0  0  0  0  0  0  0  0
   16.9420   13.2170   58.2190 C   0  0  0  0  0  0  0  0  0  0  0  0
   15.9780   13.8770   57.3640 O   0  0  0  0  0  0  0  0  0  0  0  0
   17.0470   13.8990   59.6310 C   0  0  0  0  0  0  0  0  0  0  0  0
   15.7540   13.9060   60.2610 O   0  0  0  0  0  0  0  0  0  0  0  0
   18.1230   13.1190   60.4850 C   0  0  0  0  0  0  0  0  0  0  0  0
   18.2220   13.7180   61.7990 O   0  0  0  0  0  0  0  0  0  0  0  0
   19.5230   13.1600   59.7010 C   0  0  0  0  0  0  0  0  0  0  0  0
   20.6690   12.4010   60.4780 C   0  0  0  0  0  0  0  0  0  0  0  0
   20.4410   10.9830   60.4820 O   0  0  0  0  0  0  0  0  0  0  0  0
   18.2160   12.6220   56.2560 N   0  0  0  0  0  0  0  0  0  0  0  0
   18.7340   13.1830   55.1290 C   0  0  0  0  0  0  0  0  0  0  0  0
   19.3360   14.2770   55.2330 O   0  0  0  0  0  0  0  0  0  0  0  0
   18.5940   12.5690   53.8990 N   0  0  0  0  0  0  0  0  0  0  0  0
   17.9500   11.3680   53.6690 C   0  0  0  0  0  0  0  0  0  0  0  0
   17.4420   10.7090   54.5640 O   0  0  0  0  0  0  0  0  0  0  0  0
   17.8870   10.7390   52.2920 C   0  0  0  0  0  0  0  0  0  0  0  0
   17.2370    9.4440   52.0690 C   0  0  0  0  0  0  0  0  0  0  0  0
   17.1980    8.8590   50.7640 C   0  0  0  0  0  0  0  0  0  0  0  0
   17.7850    9.5660   49.6450 C   0  0  0  0  0  0  0  0  0  0  0  0
   18.4090   10.8600   49.8470 C   0  0  0  0  0  0  0  0  0  0  0  0
   18.4570   11.4470   51.1610 C   0  0  0  0  0  0  0  0  0  0  0  0
  2  1  1  0
  9  1  1  0
  3  2  1  0
 12  2  1  0
  4  3  1  0
  5  3  1  0
  6  5  1  0
  7  5  1  0
  8  7  1  0
  9  7  1  0
 10  9  1  0
 11 10  1  0
 13 12  1  0
 14 13  2  0
 15 13  1  0
 16 15  1  0
 17 16  2  0
 18 16  1  0
 19 18  2  0
 23 18  1  0
 20 19  1  0
 21 20  2  0
 22 21  1  0
 23 22  2  0
A    1
O5
A    2
C1
A    3
C2
A    4
O2
A    5
C3
A    6
O3
A    7
C4
A    8
O4
A    9
C5
A   10
C6
A   11
O6
A   12
N1
A   13
C7
A   14
O7
A   15
N2
A   16
C8
A   17
O8
A   18
C9
A   19
C10
A   20
C11
A   21
C12
A   22
C13
A   23
C14
M  END
>  <Id>  (9) 
1K08_BZD_A_920

>  <ChainId>  (9) 
A

>  <AsymId>  (9) 
C

>  <SeqNum>  (9) 
920

>  <Name>  (9) 
N-BENZOYL-N'-BETA-D-GLUCOPYRANOSYL UREA

>  <SystematicName>  (9) 
N-[[(2R,3R,4S,5S,6R)-3,4,5-trihydroxy-6-(hydroxymethyl)oxan-2-yl]carbamoyl]benzamide

>  <Synonyms>  (9) 


>  <Type>  (9) 
NON-POLYMER

>  <Formula>  (9) 
C14 H18 N2 O7

>  <ObservedFormula>  (9) 
C14 N2 O7

>  <MolecularWeight>  (9) 
326.302

>  <ModifiedDate>  (9) 
2011-06-04

>  <Parent>  (9) 


>  <OneLetterCode>  (9) 


>  <SubcomponentList>  (9) 


>  <AmbiguousFlag>  (9) 
N

>  <InsertionCode>  (9) 


>  <InstanceId>  (9) 
1K08_BZD_A_920

>  <ChemCompId>  (9) 
BZD

>  <PdbId>  (9) 
1K08

>  <ResidueNumber>  (9) 
920

>  <InChI>  (9) 
InChI=1S/C14H18N2O7/c17-6-8-9(18)10(19)11(20)13(23-8)16-14(22)15-12(21)7-4-2-1-3-5-7/h1-5,8-11,13,17-20H,6H2,(H2,15,16,21,22)/t8-,9-,10+,11-,13-/m1/s1

>  <InChIKey>  (9) 
JSBCZGSPFATCOV-BZNQNGANSA-N

>  <SMILES>  (9) 
c1ccc(cc1)C(=O)NC(=O)N[C@H]2[C@@H]([C@H]([C@@H]([C@H](O2)CO)O)O)O

>  <MissingHeavyAtoms>  (9) 
0

>  <Model>  (9) 
1

>  <AltIds>  (9) 


>  <pKI>  (9) 
5.34

>  <ChemblID>  (9) 
CHEMBL489799

>  <standardized_canonical_smiles>  (9) 
O=C(NC(=O)c1ccccc1)N[C@@H]1O[C@H](CO)[C@@H](O)[C@H](O)[C@H]1O

$$$$
2QNB_BZD_A_920
     RDKit          3D

 23 24  0  0  0  0  0  0  0  0999 V2000
   19.0870   12.5170   58.4570 O   0  0  0  0  0  0  0  0  0  0  0  0
   18.1930   13.1510   57.5070 C   0  0  0  0  0  0  0  0  0  0  0  0
   16.7640   13.2360   58.0720 C   0  0  0  0  0  0  0  0  0  0  0  0
   15.9140   13.9290   57.1510 O   0  0  0  0  0  0  0  0  0  0  0  0
   16.7500   13.9460   59.4330 C   0  0  0  0  0  0  0  0  0  0  0  0
   15.4600   13.7980   60.0270 O   0  0  0  0  0  0  0  0  0  0  0  0
   17.8220   13.3590   60.3640 C   0  0  0  0  0  0  0  0  0  0  0  0
   17.8620   14.0980   61.5940 O   0  0  0  0  0  0  0  0  0  0  0  0
   19.1980   13.3450   59.6590 C   0  0  0  0  0  0  0  0  0  0  0  0
   20.3600   12.8670   60.5510 C   0  0  0  0  0  0  0  0  0  0  0  0
   20.2510   11.4630   60.7990 O   0  0  0  0  0  0  0  0  0  0  0  0
   18.1090   12.4710   56.1820 N   0  0  0  0  0  0  0  0  0  0  0  0
   18.5810   13.0800   55.0890 C   0  0  0  0  0  0  0  0  0  0  0  0
   19.1050   14.1910   55.1540 O   0  0  0  0  0  0  0  0  0  0  0  0
   18.4840   12.4510   53.9140 N   0  0  0  0  0  0  0  0  0  0  0  0
   17.9400   11.2430   53.7300 C   0  0  0  0  0  0  0  0  0  0  0  0
   17.4530   10.5520   54.6250 O   0  0  0  0  0  0  0  0  0  0  0  0
   17.9430   10.7480   52.2740 C   0  0  0  0  0  0  0  0  0  0  0  0
   17.3440    9.5280   51.9540 C   0  0  0  0  0  0  0  0  0  0  0  0
   17.3370    9.0660   50.6380 C   0  0  0  0  0  0  0  0  0  0  0  0
   17.9170    9.8380   49.6300 C   0  0  0  0  0  0  0  0  0  0  0  0
   18.5070   11.0620   49.9440 C   0  0  0  0  0  0  0  0  0  0  0  0
   18.5190   11.5190   51.2630 C   0  0  0  0  0  0  0  0  0  0  0  0
  2  1  1  0
  9  1  1  0
  3  2  1  0
 12  2  1  0
  4  3  1  0
  5  3  1  0
  6  5  1  0
  7  5  1  0
  8  7  1  0
  9  7  1  0
 10  9  1  0
 11 10  1  0
 13 12  1  0
 14 13  2  0
 15 13  1  0
 16 15  1  0
 17 16  2  0
 18 16  1  0
 19 18  2  0
 23 18  1  0
 20 19  1  0
 21 20  2  0
 22 21  1  0
 23 22  2  0
A    1
O5
A    2
C1
A    3
C2
A    4
O2
A    5
C3
A    6
O3
A    7
C4
A    8
O4
A    9
C5
A   10
C6
A   11
O6
A   12
N1
A   13
C7
A   14
O7
A   15
N2
A   16
C8
A   17
O8
A   18
C9
A   19
C10
A   20
C11
A   21
C12
A   22
C13
A   23
C14
M  END
>  <Id>  (10) 
2QNB_BZD_A_920

>  <ChainId>  (10) 
A

>  <AsymId>  (10) 
C

>  <SeqNum>  (10) 
920

>  <Name>  (10) 
N-BENZOYL-N'-BETA-D-GLUCOPYRANOSYL UREA

>  <SystematicName>  (10) 
N-[[(2R,3R,4S,5S,6R)-3,4,5-trihydroxy-6-(hydroxymethyl)oxan-2-yl]carbamoyl]benzamide

>  <Synonyms>  (10) 


>  <Type>  (10) 
NON-POLYMER

>  <Formula>  (10) 
C14 H18 N2 O7

>  <ObservedFormula>  (10) 
C14 N2 O7

>  <MolecularWeight>  (10) 
326.302

>  <ModifiedDate>  (10) 
2011-06-04

>  <Parent>  (10) 


>  <OneLetterCode>  (10) 


>  <SubcomponentList>  (10) 


>  <AmbiguousFlag>  (10) 
N

>  <InsertionCode>  (10) 


>  <InstanceId>  (10) 
2QNB_BZD_A_920

>  <ChemCompId>  (10) 
BZD

>  <PdbId>  (10) 
2QNB

>  <ResidueNumber>  (10) 
920

>  <InChI>  (10) 
InChI=1S/C14H18N2O7/c17-6-8-9(18)10(19)11(20)13(23-8)16-14(22)15-12(21)7-4-2-1-3-5-7/h1-5,8-11,13,17-20H,6H2,(H2,15,16,21,22)/t8-,9-,10+,11-,13-/m1/s1

>  <InChIKey>  (10) 
JSBCZGSPFATCOV-BZNQNGANSA-N

>  <SMILES>  (10) 
c1ccc(cc1)C(=O)NC(=O)N[C@H]2[C@@H]([C@H]([C@@H]([C@H](O2)CO)O)O)O

>  <MissingHeavyAtoms>  (10) 
0

>  <Model>  (10) 
1

>  <AltIds>  (10) 


>  <pKI>  (10) 
5.34

>  <ChemblID>  (10) 
CHEMBL489799

>  <standardized_canonical_smiles>  (10) 
O=C(NC(=O)c1ccccc1)N[C@@H]1O[C@H](CO)[C@@H](O)[C@H](O)[C@H]1O

$$$$
1HLF_GL4_A_998
     RDKit          3D

 17 18  0  0  0  0  0  0  0  0999 V2000
   33.9140   22.7470   27.8160 C   0  0  0  0  0  0  0  0  0  0  0  0
   33.9590   23.1090   26.2940 C   0  0  0  0  0  0  0  0  0  0  0  0
   34.0230   24.5300   26.1100 O   0  0  0  0  0  0  0  0  0  0  0  0
   32.6840   22.5620   25.5680 C   0  0  0  0  0  0  0  0  0  0  0  0
   32.8740   22.7290   24.1700 O   0  0  0  0  0  0  0  0  0  0  0  0
   32.4650   21.0480   25.8970 C   0  0  0  0  0  0  0  0  0  0  0  0
   31.2700   20.6050   25.3200 O   0  0  0  0  0  0  0  0  0  0  0  0
   32.4260   20.8230   27.4610 C   0  0  0  0  0  0  0  0  0  0  0  0
   32.3420   19.3660   27.8420 C   0  0  0  0  0  0  0  0  0  0  0  0
   33.4520   18.6970   27.2850 O   0  0  0  0  0  0  0  0  0  0  0  0
   33.6310   21.3600   28.0650 O   0  0  0  0  0  0  0  0  0  0  0  0
   35.2420   23.1450   28.3750 N   0  0  0  0  0  0  0  0  0  0  0  0
   35.0320   24.0940   29.2830 C   0  0  0  0  0  0  0  0  0  0  0  0
   36.3110   24.7340   30.1710 S   0  0  0  0  0  0  0  0  0  0  0  0
   33.7580   24.4600   29.4730 N   0  0  0  0  0  0  0  0  0  0  0  0
   33.0470   23.6770   28.6300 C   0  0  0  0  0  0  0  0  0  0  0  0
   31.8210   23.7490   28.6050 O   0  0  0  0  0  0  0  0  0  0  0  0
  2  1  1  0
 11  1  1  0
 12  1  1  0
 16  1  1  0
  3  2  1  0
  4  2  1  0
  5  4  1  0
  6  4  1  0
  7  6  1  0
  8  6  1  0
  9  8  1  0
 11  8  1  0
 10  9  1  0
 13 12  1  0
 14 13  2  0
 15 13  1  0
 16 15  1  0
 17 16  2  0
A    1
C1
A    2
C2
A    3
O2
A    4
C3
A    5
O3
A    6
C4
A    7
O4
A    8
C5
A    9
C6
A   10
O6
A   11
O5
A   12
N2
A   13
C8
A   14
S8
A   15
N1
A   16
C7
A   17
O7
M  END
>  <Id>  (11) 
1HLF_GL4_A_998

>  <ChainId>  (11) 
A

>  <AsymId>  (11) 
C

>  <SeqNum>  (11) 
998

>  <Name>  (11) 
8,9,10-TRIHYDROXY-7-HYDROXYMETHYL-2-THIOXO-6-OXA-1,3-DIAZA-SPIRO[4.5]DECAN-4-ONE

>  <SystematicName>  (11) 
(5S,6R,7S,8S,9R)-6,7,8-trihydroxy-9-(hydroxymethyl)-2-sulfanylidene-10-oxa-1,3-diazaspiro[4.5]decan-4-one

>  <Synonyms>  (11) 


>  <Type>  (11) 
NON-POLYMER

>  <Formula>  (11) 
C8 H12 N2 O6 S

>  <ObservedFormula>  (11) 
C8 S N2 O6

>  <MolecularWeight>  (11) 
264.256

>  <ModifiedDate>  (11) 
2011-06-04

>  <Parent>  (11) 


>  <OneLetterCode>  (11) 


>  <SubcomponentList>  (11) 


>  <AmbiguousFlag>  (11) 
N

>  <InsertionCode>  (11) 


>  <InstanceId>  (11) 
1HLF_GL4_A_998

>  <ChemCompId>  (11) 
GL4

>  <PdbId>  (11) 
1HLF

>  <ResidueNumber>  (11) 
998

>  <InChI>  (11) 
InChI=1S/C8H12N2O6S/c11-1-2-3(12)4(13)5(14)8(16-2)6(15)9-7(17)10-8/h2-5,11-14H,1H2,(H2,9,10,15,17)/t2-,3-,4+,5-,8+/m1/s1

>  <InChIKey>  (11) 
OEWLGQKSTDZKFN-WWHASAIZSA-N

>  <SMILES>  (11) 
C([C@@H]1[C@H]([C@@H]([C@H]([C@]2(O1)C(=O)NC(=S)N2)O)O)O)O

>  <MissingHeavyAtoms>  (11) 
0

>  <Model>  (11) 
1

>  <AltIds>  (11) 


>  <pKI>  (11) 
5.29

>  <ChemblID>  (11) 
CHEMBL489798

>  <standardized_canonical_smiles>  (11) 
O=C1NC(=S)N[C@@]12O[C@H](CO)[C@@H](O)[C@H](O)[C@H]2O

$$$$
1A8I_GLS_A_998
     RDKit          3D

 17 18  0  0  0  0  0  0  0  0999 V2000
   33.9450   22.8240   27.5750 C   0  0  0  0  0  0  0  0  0  0  0  0
   33.9200   23.1700   26.0400 C   0  0  0  0  0  0  0  0  0  0  0  0
   33.8830   24.5890   25.9230 O   0  0  0  0  0  0  0  0  0  0  0  0
   32.6290   22.5860   25.3820 C   0  0  0  0  0  0  0  0  0  0  0  0
   32.8930   22.6750   23.9970 O   0  0  0  0  0  0  0  0  0  0  0  0
   32.5680   21.1140   25.7580 C   0  0  0  0  0  0  0  0  0  0  0  0
   31.4440   20.5260   25.1190 O   0  0  0  0  0  0  0  0  0  0  0  0
   32.5400   20.8780   27.2650 C   0  0  0  0  0  0  0  0  0  0  0  0
   32.3740   19.4390   27.7160 C   0  0  0  0  0  0  0  0  0  0  0  0
   33.4340   18.6670   27.1410 O   0  0  0  0  0  0  0  0  0  0  0  0
   33.6860   21.4360   27.8970 O   0  0  0  0  0  0  0  0  0  0  0  0
   35.2410   23.1500   28.1480 N   0  0  0  0  0  0  0  0  0  0  0  0
   35.0630   23.9880   29.1750 C   0  0  0  0  0  0  0  0  0  0  0  0
   36.0200   24.4190   29.8700 O   0  0  0  0  0  0  0  0  0  0  0  0
   33.8110   24.3560   29.4310 N   0  0  0  0  0  0  0  0  0  0  0  0
   33.0600   23.6720   28.4970 C   0  0  0  0  0  0  0  0  0  0  0  0
   31.8440   23.7720   28.4710 O   0  0  0  0  0  0  0  0  0  0  0  0
  2  1  1  0
 11  1  1  0
 12  1  1  0
 16  1  1  0
  3  2  1  0
  4  2  1  0
  5  4  1  0
  6  4  1  0
  7  6  1  0
  8  6  1  0
  9  8  1  0
 11  8  1  0
 10  9  1  0
 13 12  1  0
 14 13  2  0
 15 13  1  0
 16 15  1  0
 17 16  2  0
A    1
C1
A    2
C2
A    3
O2
A    4
C3
A    5
O3
A    6
C4
A    7
O4
A    8
C5
A    9
C6
A   10
O6
A   11
O5
A   12
N2
A   13
C8
A   14
O8
A   15
N1
A   16
C7
A   17
O7
M  END
>  <Id>  (12) 
1A8I_GLS_A_998

>  <ChainId>  (12) 
A

>  <AsymId>  (12) 
B

>  <SeqNum>  (12) 
998

>  <Name>  (12) 
BETA-D-GLUCOPYRANOSE SPIROHYDANTOIN

>  <SystematicName>  (12) 
(5S,6R,7S,8S,9R)-6,7,8-trihydroxy-9-(hydroxymethyl)-10-oxa-1,3-diazaspiro[4.5]decane-2,4-dione

>  <Synonyms>  (12) 


>  <Type>  (12) 
D-SACCHARIDE

>  <Formula>  (12) 
C8 H12 N2 O7

>  <ObservedFormula>  (12) 
C8 N2 O7

>  <MolecularWeight>  (12) 
248.19

>  <ModifiedDate>  (12) 
2011-06-04

>  <Parent>  (12) 


>  <OneLetterCode>  (12) 


>  <SubcomponentList>  (12) 


>  <AmbiguousFlag>  (12) 
N

>  <InsertionCode>  (12) 


>  <InstanceId>  (12) 
1A8I_GLS_A_998

>  <ChemCompId>  (12) 
GLS

>  <PdbId>  (12) 
1A8I

>  <ResidueNumber>  (12) 
998

>  <InChI>  (12) 
InChI=1S/C8H12N2O7/c11-1-2-3(12)4(13)5(14)8(17-2)6(15)9-7(16)10-8/h2-5,11-14H,1H2,(H2,9,10,15,16)/t2-,3-,4+,5-,8+/m1/s1

>  <InChIKey>  (12) 
QRXBDPYWCAAAAI-WWHASAIZSA-N

>  <SMILES>  (12) 
C([C@@H]1[C@H]([C@@H]([C@H]([C@]2(O1)C(=O)NC(=O)N2)O)O)O)O

>  <MissingHeavyAtoms>  (12) 
0

>  <Model>  (12) 
1

>  <AltIds>  (12) 


>  <pKI>  (12) 
5.51

>  <ChemblID>  (12) 
CHEMBL510975

>  <standardized_canonical_smiles>  (12) 
O=C1NC(=O)[C@@]2(N1)O[C@H](CO)[C@@H](O)[C@H](O)[C@H]2O

$$$$
1GGN_GLS_A_998
     RDKit          3D

 17 18  0  0  0  0  0  0  0  0999 V2000
   33.9560   22.7890   27.8470 C   0  0  0  0  0  0  0  0  0  0  0  0
   33.9560   23.1040   26.2930 C   0  0  0  0  0  0  0  0  0  0  0  0
   34.0030   24.4890   26.0500 O   0  0  0  0  0  0  0  0  0  0  0  0
   32.6870   22.5180   25.6310 C   0  0  0  0  0  0  0  0  0  0  0  0
   32.7050   22.6180   24.2440 O   0  0  0  0  0  0  0  0  0  0  0  0
   32.4930   21.0420   25.9840 C   0  0  0  0  0  0  0  0  0  0  0  0
   31.3160   20.6290   25.3660 O   0  0  0  0  0  0  0  0  0  0  0  0
   32.3970   20.8580   27.5430 C   0  0  0  0  0  0  0  0  0  0  0  0
   32.2530   19.3800   27.8620 C   0  0  0  0  0  0  0  0  0  0  0  0
   33.3420   18.6600   27.3410 O   0  0  0  0  0  0  0  0  0  0  0  0
   33.6210   21.3670   28.1270 O   0  0  0  0  0  0  0  0  0  0  0  0
   35.2650   23.0730   28.3800 N   0  0  0  0  0  0  0  0  0  0  0  0
   35.1270   23.9830   29.3650 C   0  0  0  0  0  0  0  0  0  0  0  0
   36.0420   24.3810   30.0720 O   0  0  0  0  0  0  0  0  0  0  0  0
   33.8880   24.4190   29.6180 N   0  0  0  0  0  0  0  0  0  0  0  0
   33.1430   23.7320   28.7390 C   0  0  0  0  0  0  0  0  0  0  0  0
   31.9110   23.8450   28.6740 O   0  0  0  0  0  0  0  0  0  0  0  0
  2  1  1  0
 11  1  1  0
 12  1  1  0
 16  1  1  0
  3  2  1  0
  4  2  1  0
  5  4  1  0
  6  4  1  0
  7  6  1  0
  8  6  1  0
  9  8  1  0
 11  8  1  0
 10  9  1  0
 13 12  1  0
 14 13  2  0
 15 13  1  0
 16 15  1  0
 17 16  2  0
A    1
C1
A    2
C2
A    3
O2
A    4
C3
A    5
O3
A    6
C4
A    7
O4
A    8
C5
A    9
C6
A   10
O6
A   11
O5
A   12
N2
A   13
C8
A   14
O8
A   15
N1
A   16
C7
A   17
O7
M  END
>  <Id>  (13) 
1GGN_GLS_A_998

>  <ChainId>  (13) 
A

>  <AsymId>  (13) 
B

>  <SeqNum>  (13) 
998

>  <Name>  (13) 
BETA-D-GLUCOPYRANOSE SPIROHYDANTOIN

>  <SystematicName>  (13) 
(5S,6R,7S,8S,9R)-6,7,8-trihydroxy-9-(hydroxymethyl)-10-oxa-1,3-diazaspiro[4.5]decane-2,4-dione

>  <Synonyms>  (13) 


>  <Type>  (13) 
D-SACCHARIDE

>  <Formula>  (13) 
C8 H12 N2 O7

>  <ObservedFormula>  (13) 
C8 N2 O7

>  <MolecularWeight>  (13) 
248.19

>  <ModifiedDate>  (13) 
2011-06-04

>  <Parent>  (13) 


>  <OneLetterCode>  (13) 


>  <SubcomponentList>  (13) 


>  <AmbiguousFlag>  (13) 
N

>  <InsertionCode>  (13) 


>  <InstanceId>  (13) 
1GGN_GLS_A_998

>  <ChemCompId>  (13) 
GLS

>  <PdbId>  (13) 
1GGN

>  <ResidueNumber>  (13) 
998

>  <InChI>  (13) 
InChI=1S/C8H12N2O7/c11-1-2-3(12)4(13)5(14)8(17-2)6(15)9-7(16)10-8/h2-5,11-14H,1H2,(H2,9,10,15,16)/t2-,3-,4+,5-,8+/m1/s1

>  <InChIKey>  (13) 
QRXBDPYWCAAAAI-WWHASAIZSA-N

>  <SMILES>  (13) 
C([C@@H]1[C@H]([C@@H]([C@H]([C@]2(O1)C(=O)NC(=O)N2)O)O)O)O

>  <MissingHeavyAtoms>  (13) 
0

>  <Model>  (13) 
1

>  <AltIds>  (13) 


>  <pKI>  (13) 
5.51

>  <ChemblID>  (13) 
CHEMBL510975

>  <standardized_canonical_smiles>  (13) 
O=C1NC(=O)[C@@]2(N1)O[C@H](CO)[C@@H](O)[C@H](O)[C@H]2O

$$$$
2QLM_F68_A_998
     RDKit          3D

 24 25  0  0  0  0  0  0  0  0999 V2000
   36.7110   26.3810   31.9780 C   0  0  0  0  0  0  0  0  0  0  0  0
   37.8460   26.9110   32.5900 C   0  0  0  0  0  0  0  0  0  0  0  0
   37.9400   26.9330   33.9840 C   0  0  0  0  0  0  0  0  0  0  0  0
   39.1890   27.5220   34.6450 C   0  0  0  0  0  0  0  0  0  0  0  0
   36.8980   26.4310   34.7680 C   0  0  0  0  0  0  0  0  0  0  0  0
   35.7640   25.8990   34.1500 C   0  0  0  0  0  0  0  0  0  0  0  0
   35.6720   25.8650   32.7550 C   0  0  0  0  0  0  0  0  0  0  0  0
   34.4150   25.2890   32.0730 C   0  0  0  0  0  0  0  0  0  0  0  0
   33.3110   25.4100   32.6110 O   0  0  0  0  0  0  0  0  0  0  0  0
   34.6390   24.6880   30.8890 N   0  0  0  0  0  0  0  0  0  0  0  0
   33.7040   24.1170   30.1060 C   0  0  0  0  0  0  0  0  0  0  0  0
   32.5060   24.0960   30.4020 O   0  0  0  0  0  0  0  0  0  0  0  0
   34.1460   23.5700   28.9700 N   0  0  0  0  0  0  0  0  0  0  0  0
   33.2130   22.9080   28.0170 C   0  0  0  0  0  0  0  0  0  0  0  0
   33.1530   21.4650   28.2550 O   0  0  0  0  0  0  0  0  0  0  0  0
   32.1170   20.8330   27.4860 C   0  0  0  0  0  0  0  0  0  0  0  0
   32.0460   19.3570   27.9170 C   0  0  0  0  0  0  0  0  0  0  0  0
   33.1600   18.6250   27.3900 O   0  0  0  0  0  0  0  0  0  0  0  0
   32.3390   21.0300   25.9640 C   0  0  0  0  0  0  0  0  0  0  0  0
   31.1890   20.5620   25.2540 O   0  0  0  0  0  0  0  0  0  0  0  0
   32.5810   22.5140   25.6210 C   0  0  0  0  0  0  0  0  0  0  0  0
   32.9820   22.6380   24.2530 O   0  0  0  0  0  0  0  0  0  0  0  0
   33.6330   23.1360   26.5570 C   0  0  0  0  0  0  0  0  0  0  0  0
   33.8100   24.5400   26.2990 O   0  0  0  0  0  0  0  0  0  0  0  0
  2  1  2  0
  7  1  1  0
  3  2  1  0
  4  3  1  0
  5  3  2  0
  6  5  1  0
  7  6  2  0
  8  7  1  0
  9  8  2  0
 10  8  1  0
 11 10  1  0
 12 11  2  0
 13 11  1  0
 14 13  1  0
 15 14  1  0
 23 14  1  0
 16 15  1  0
 17 16  1  0
 19 16  1  0
 18 17  1  0
 20 19  1  0
 21 19  1  0
 22 21  1  0
 23 21  1  0
 24 23  1  0
A    1
C10
A    2
C11
A    3
C12
A    4
C15
A    5
C13
A    6
C14
A    7
C9
A    8
C8
A    9
O8
A   10
N2
A   11
C7
A   12
O7
A   13
N1
A   14
C1
A   15
O5
A   16
C5
A   17
C6
A   18
O6
A   19
C4
A   20
O4
A   21
C3
A   22
O3
A   23
C2
A   24
O2
M  END
>  <Id>  (14) 
2QLM_F68_A_998

>  <ChainId>  (14) 
A

>  <AsymId>  (14) 
B

>  <SeqNum>  (14) 
998

>  <Name>  (14) 
N-{[(4-methylphenyl)carbonyl]carbamoyl}-beta-D-glucopyranosylamine

>  <SystematicName>  (14) 
4-methyl-N-[[(2R,3R,4S,5S,6R)-3,4,5-trihydroxy-6-(hydroxymethyl)oxan-2-yl]carbamoyl]benzamide

>  <Synonyms>  (14) 


>  <Type>  (14) 
NON-POLYMER

>  <Formula>  (14) 
C15 H20 N2 O7

>  <ObservedFormula>  (14) 
C15 N2 O7

>  <MolecularWeight>  (14) 
340.329

>  <ModifiedDate>  (14) 
2011-06-04

>  <Parent>  (14) 


>  <OneLetterCode>  (14) 


>  <SubcomponentList>  (14) 


>  <AmbiguousFlag>  (14) 
N

>  <InsertionCode>  (14) 


>  <InstanceId>  (14) 
2QLM_F68_A_998

>  <ChemCompId>  (14) 
F68

>  <PdbId>  (14) 
2QLM

>  <ResidueNumber>  (14) 
998

>  <InChI>  (14) 
InChI=1S/C15H20N2O7/c1-7-2-4-8(5-3-7)13(22)16-15(23)17-14-12(21)11(20)10(19)9(6-18)24-14/h2-5,9-12,14,18-21H,6H2,1H3,(H2,16,17,22,23)/t9-,10-,11+,12-,14-/m1/s1

>  <InChIKey>  (14) 
DUVVGYBLYHSFMV-YGEZULPYSA-N

>  <SMILES>  (14) 
Cc1ccc(cc1)C(=O)NC(=O)N[C@H]2[C@@H]([C@H]([C@@H]([C@H](O2)CO)O)O)O

>  <MissingHeavyAtoms>  (14) 
0

>  <Model>  (14) 
1

>  <AltIds>  (14) 


>  <pKI>  (14) 
5.64

>  <ChemblID>  (14) 
CHEMBL564199

>  <standardized_canonical_smiles>  (14) 
Cc1ccc(C(=O)NC(=O)N[C@@H]2O[C@H](CO)[C@@H](O)[C@H](O)[C@H]2O)cc1

$$$$
2QN8_NBY_A_998
     RDKit          3D

 26 27  0  0  0  0  0  0  0  0999 V2000
   33.1450   21.4750   28.2330 O   0  0  0  0  0  0  0  0  0  0  0  0
   33.3130   22.9030   27.9310 C   0  0  0  0  0  0  0  0  0  0  0  0
   33.8120   23.0960   26.4670 C   0  0  0  0  0  0  0  0  0  0  0  0
   33.9730   24.4880   26.1440 O   0  0  0  0  0  0  0  0  0  0  0  0
   32.7790   22.4660   25.5050 C   0  0  0  0  0  0  0  0  0  0  0  0
   33.2340   22.6430   24.1480 O   0  0  0  0  0  0  0  0  0  0  0  0
   32.6130   20.9690   25.8620 C   0  0  0  0  0  0  0  0  0  0  0  0
   31.6260   20.3430   25.0170 O   0  0  0  0  0  0  0  0  0  0  0  0
   32.1720   20.8340   27.3620 C   0  0  0  0  0  0  0  0  0  0  0  0
   32.0300   19.3490   27.7980 C   0  0  0  0  0  0  0  0  0  0  0  0
   33.0260   18.5580   27.1210 O   0  0  0  0  0  0  0  0  0  0  0  0
   34.2720   23.5010   28.8580 N   0  0  0  0  0  0  0  0  0  0  0  0
   33.8790   24.0570   29.9850 C   0  0  0  0  0  0  0  0  0  0  0  0
   32.6790   24.0780   30.3000 O   0  0  0  0  0  0  0  0  0  0  0  0
   34.8110   24.5960   30.7480 N   0  0  0  0  0  0  0  0  0  0  0  0
   34.5930   25.1870   31.9040 C   0  0  0  0  0  0  0  0  0  0  0  0
   33.5010   25.3230   32.4660 O   0  0  0  0  0  0  0  0  0  0  0  0
   35.7870   25.7920   32.6090 C   0  0  0  0  0  0  0  0  0  0  0  0
   36.7700   26.4680   31.8410 C   0  0  0  0  0  0  0  0  0  0  0  0
   37.9000   27.0650   32.4530 C   0  0  0  0  0  0  0  0  0  0  0  0
   38.0890   27.0030   33.8680 C   0  0  0  0  0  0  0  0  0  0  0  0
   37.0870   26.3120   34.6370 C   0  0  0  0  0  0  0  0  0  0  0  0
   35.9500   25.7130   34.0150 C   0  0  0  0  0  0  0  0  0  0  0  0
   39.1970   27.5970   34.4720 N   0  0  0  0  0  0  0  0  0  0  0  0
   39.3140   27.5160   35.6770 O   0  0  0  0  0  0  0  0  0  0  0  0
   40.0120   28.1790   33.7720 O   0  0  0  0  0  0  0  0  0  0  0  0
  2  1  1  0
  9  1  1  0
  3  2  1  0
 12  2  1  0
  4  3  1  0
  5  3  1  0
  6  5  1  0
  7  5  1  0
  8  7  1  0
  9  7  1  0
 10  9  1  0
 11 10  1  0
 13 12  1  0
 14 13  2  0
 15 13  1  0
 16 15  1  0
 17 16  2  0
 18 16  1  0
 19 18  2  0
 23 18  1  0
 20 19  1  0
 21 20  2  0
 22 21  1  0
 24 21  1  0
 23 22  2  0
 25 24  2  0
 26 24  1  0
M  CHG  2  24   1  26  -1
A    1
O5
A    2
C1
A    3
C2
A    4
O2
A    5
C3
A    6
O3
A    7
C4
A    8
O4
A    9
C5
A   10
C6
A   11
O6
A   12
N1
A   13
C7
A   14
O7
A   15
N2
A   16
C8
A   17
O8
A   18
C9
A   19
C10
A   20
C11
A   21
C12
A   22
C13
A   23
C14
A   24
N3
A   25
O9
A   26
O10
M  END
>  <Id>  (15) 
2QN8_NBY_A_998

>  <ChainId>  (15) 
A

>  <AsymId>  (15) 
E

>  <SeqNum>  (15) 
998

>  <Name>  (15) 
N-{[(4-nitrophenyl)carbonyl]carbamoyl}-beta-D-glucopyranosylamine

>  <SystematicName>  (15) 
4-nitro-N-[[(2R,3R,4S,5S,6R)-3,4,5-trihydroxy-6-(hydroxymethyl)oxan-2-yl]carbamoyl]benzamide

>  <Synonyms>  (15) 


>  <Type>  (15) 
NON-POLYMER

>  <Formula>  (15) 
C14 H17 N3 O9

>  <ObservedFormula>  (15) 
C14 N3 O9

>  <MolecularWeight>  (15) 
371.299

>  <ModifiedDate>  (15) 
2011-06-04

>  <Parent>  (15) 


>  <OneLetterCode>  (15) 


>  <SubcomponentList>  (15) 


>  <AmbiguousFlag>  (15) 
N

>  <InsertionCode>  (15) 


>  <InstanceId>  (15) 
2QN8_NBY_A_998

>  <ChemCompId>  (15) 
NBY

>  <PdbId>  (15) 
2QN8

>  <ResidueNumber>  (15) 
998

>  <InChI>  (15) 
InChI=1S/C14H17N3O9/c18-5-8-9(19)10(20)11(21)13(26-8)16-14(23)15-12(22)6-1-3-7(4-2-6)17(24)25/h1-4,8-11,13,18-21H,5H2,(H2,15,16,22,23)/t8-,9-,10+,11-,13-/m1/s1

>  <InChIKey>  (15) 
TXVZHPDFTXBTMX-BZNQNGANSA-N

>  <SMILES>  (15) 
c1cc(ccc1C(=O)NC(=O)N[C@H]2[C@@H]([C@H]([C@@H]([C@H](O2)CO)O)O)O)[N+](=O)[O-]

>  <MissingHeavyAtoms>  (15) 
0

>  <Model>  (15) 
1

>  <AltIds>  (15) 


>  <pKI>  (15) 
5.48

>  <ChemblID>  (15) 
CHEMBL554821

>  <standardized_canonical_smiles>  (15) 
O=C(NC(=O)c1ccc([N+](=O)[O-])cc1)N[C@@H]1O[C@H](CO)[C@@H](O)[C@H](O)[C@H]1O

$$$$
2QN9_NBX_A_998
     RDKit          3D

 24 25  0  0  0  0  0  0  0  0999 V2000
   35.2920   25.7870   34.2620 C   0  0  0  0  0  0  0  0  0  0  0  0
   35.5350   25.5230   32.8780 C   0  0  0  0  0  0  0  0  0  0  0  0
   32.6710   22.4760   25.4850 C   0  0  0  0  0  0  0  0  0  0  0  0
   37.6220   26.4350   34.5890 C   0  0  0  0  0  0  0  0  0  0  0  0
   33.9230   24.5020   26.0650 O   0  0  0  0  0  0  0  0  0  0  0  0
   33.7120   23.1410   26.4480 C   0  0  0  0  0  0  0  0  0  0  0  0
   38.6400   26.8790   35.4430 N   0  0  0  0  0  0  0  0  0  0  0  0
   34.6250   24.5920   30.7790 N   0  0  0  0  0  0  0  0  0  0  0  0
   32.0000   20.9910   27.4170 C   0  0  0  0  0  0  0  0  0  0  0  0
   33.6990   24.0660   29.9960 C   0  0  0  0  0  0  0  0  0  0  0  0
   33.1140   23.1530   27.8720 C   0  0  0  0  0  0  0  0  0  0  0  0
   32.9820   18.7090   27.4390 O   0  0  0  0  0  0  0  0  0  0  0  0
   36.8470   25.7210   32.3500 C   0  0  0  0  0  0  0  0  0  0  0  0
   34.0620   23.7700   28.7890 N   0  0  0  0  0  0  0  0  0  0  0  0
   36.3220   26.2410   35.1060 C   0  0  0  0  0  0  0  0  0  0  0  0
   32.9260   21.7210   28.2610 O   0  0  0  0  0  0  0  0  0  0  0  0
   31.5220   20.3180   25.1400 O   0  0  0  0  0  0  0  0  0  0  0  0
   31.8730   19.5190   27.9340 C   0  0  0  0  0  0  0  0  0  0  0  0
   33.1680   22.5100   24.1370 O   0  0  0  0  0  0  0  0  0  0  0  0
   32.5300   23.8690   30.3580 O   0  0  0  0  0  0  0  0  0  0  0  0
   32.4810   21.0190   25.9490 C   0  0  0  0  0  0  0  0  0  0  0  0
   33.2820   24.9640   32.5050 O   0  0  0  0  0  0  0  0  0  0  0  0
   34.4000   25.0030   32.0070 C   0  0  0  0  0  0  0  0  0  0  0  0
   37.8920   26.1810   33.2070 C   0  0  0  0  0  0  0  0  0  0  0  0
 13 24  2  0
  2  1  2  0
 23  2  1  0
  4  7  1  0
  3 19  1  0
  4 15  2  0
  3 21  1  0
 16 11  1  0
  8 23  1  0
 11 14  1  0
 21 17  1  0
 16  9  1  0
 10 20  2  0
  6  5  1  0
 15  1  1  0
 11  6  1  0
 18 12  1  0
 23 22  2  0
  9 18  1  0
 24  4  1  0
 21  9  1  0
 10  8  1  0
  6  3  1  0
  2 13  1  0
 14 10  1  0
A    1
C14
A    2
C9
A    3
C3
A    4
C12
A    5
O2
A    6
C2
A    7
N3
A    8
N2
A    9
C5
A   10
C7
A   11
C1
A   12
O6
A   13
C10
A   14
N1
A   15
C13
A   16
O5
A   17
O4
A   18
C6
A   19
O3
A   20
O7
A   21
C4
A   22
O8
A   23
C8
A   24
C11
M  END
>  <InstanceId>  (16) 
2QN9_NBX

>  <ChemCompId>  (16) 
NBX

>  <PdbId>  (16) 
2QN9

>  <ChainId>  (16) 
A

>  <ResidueNumber>  (16) 
998

>  <InsertionCode>  (16) 
null

>  <Model>  (16) 
1

>  <AltIds>  (16) 


>  <MissingHeavyAtoms>  (16) 
0

>  <ObservedFormula>  (16) 
C14 N3 O7

>  <AsymId>  (16) 
C

>  <SeqNum>  (16) 
998

>  <Name>  (16) 
N-{[(4-aminophenyl)carbonyl]carbamoyl}-beta-D-glucopyranosylamine

>  <SystematicName>  (16) 
4-amino-N-[[(2R,3R,4S,5S,6R)-3,4,5-trihydroxy-6-(hydroxymethyl)oxan-2-yl]carbamoyl]benzamide

>  <Synonyms>  (16) 


>  <Type>  (16) 
NON-POLYMER

>  <Formula>  (16) 
C14 H19 N3 O7

>  <MolecularWeight>  (16) 
341.317

>  <ModifiedDate>  (16) 
2011-06-04

>  <Parent>  (16) 


>  <OneLetterCode>  (16) 


>  <SubcomponentList>  (16) 


>  <AmbiguousFlag>  (16) 
N

>  <InChI>  (16) 
InChI=1S/C14H19N3O7/c15-7-3-1-6(2-4-7)12(22)16-14(23)17-13-11(21)10(20)9(19)8(5-18)24-13/h1-4,8-11,13,18-21H,5,15H2,(H2,16,17,22,23)/t8-,9-,10+,11-,13-/m1/s1

>  <InChIKey>  (16) 
PVSVRIIRRQSFIR-BZNQNGANSA-N

>  <SMILES>  (16) 
c1cc(ccc1C(=O)NC(=O)N[C@H]2[C@@H]([C@H]([C@@H]([C@H](O2)CO)O)O)O)N

>  <pKI>  (16) 
5.22

>  <ChemblID>  (16) 
CHEMBL556336

>  <standardized_canonical_smiles>  (16) 
Nc1ccc(C(=O)NC(=O)N[C@@H]2O[C@H](CO)[C@@H](O)[C@H](O)[C@H]2O)cc1

$$$$
2QN7_HBZ_A_998
     RDKit          3D

 24 25  0  0  0  0  0  0  0  0999 V2000
   33.1040   21.5560   28.3790 O   0  0  0  0  0  0  0  0  0  0  0  0
   33.2560   23.0380   28.0790 C   0  0  0  0  0  0  0  0  0  0  0  0
   33.7560   23.1620   26.5830 C   0  0  0  0  0  0  0  0  0  0  0  0
   33.9300   24.5330   26.2870 O   0  0  0  0  0  0  0  0  0  0  0  0
   32.6440   22.5240   25.6460 C   0  0  0  0  0  0  0  0  0  0  0  0
   33.0360   22.6000   24.2430 O   0  0  0  0  0  0  0  0  0  0  0  0
   32.4820   21.0640   26.0140 C   0  0  0  0  0  0  0  0  0  0  0  0
   31.4340   20.4390   25.1900 O   0  0  0  0  0  0  0  0  0  0  0  0
   32.1060   20.9090   27.5040 C   0  0  0  0  0  0  0  0  0  0  0  0
   31.9860   19.3920   27.8760 C   0  0  0  0  0  0  0  0  0  0  0  0
   33.1820   18.6920   27.4120 O   0  0  0  0  0  0  0  0  0  0  0  0
   34.1990   23.5800   29.0100 N   0  0  0  0  0  0  0  0  0  0  0  0
   33.7250   24.1310   30.1270 C   0  0  0  0  0  0  0  0  0  0  0  0
   32.4910   24.1590   30.3270 O   0  0  0  0  0  0  0  0  0  0  0  0
   34.5980   24.6290   31.0200 N   0  0  0  0  0  0  0  0  0  0  0  0
   34.2820   25.2270   32.2180 C   0  0  0  0  0  0  0  0  0  0  0  0
   33.1040   25.3910   32.6140 O   0  0  0  0  0  0  0  0  0  0  0  0
   35.4290   25.6740   33.0860 C   0  0  0  0  0  0  0  0  0  0  0  0
   36.7430   25.9050   32.5170 C   0  0  0  0  0  0  0  0  0  0  0  0
   37.8580   26.3270   33.3670 C   0  0  0  0  0  0  0  0  0  0  0  0
   37.6370   26.5130   34.7880 C   0  0  0  0  0  0  0  0  0  0  0  0
   36.3310   26.2890   35.3640 C   0  0  0  0  0  0  0  0  0  0  0  0
   35.2230   25.8690   34.5210 C   0  0  0  0  0  0  0  0  0  0  0  0
   38.6620   26.9030   35.6150 O   0  0  0  0  0  0  0  0  0  0  0  0
  2  1  1  0
  9  1  1  0
  3  2  1  0
 12  2  1  0
  4  3  1  0
  5  3  1  0
  6  5  1  0
  7  5  1  0
  8  7  1  0
  9  7  1  0
 10  9  1  0
 11 10  1  0
 13 12  1  0
 14 13  2  0
 15 13  1  0
 16 15  1  0
 17 16  2  0
 18 16  1  0
 19 18  2  0
 23 18  1  0
 20 19  1  0
 21 20  2  0
 22 21  1  0
 24 21  1  0
 23 22  2  0
A    1
O5
A    2
C1
A    3
C2
A    4
O2
A    5
C3
A    6
O3
A    7
C4
A    8
O4
A    9
C5
A   10
C6
A   11
O6
A   12
N1
A   13
C7
A   14
O7
A   15
N2
A   16
C8
A   17
O8
A   18
C9
A   19
C10
A   20
C11
A   21
C12
A   22
C13
A   23
C14
A   24
O12
M  END
>  <Id>  (17) 
2QN7_HBZ_A_998

>  <ChainId>  (17) 
A

>  <AsymId>  (17) 
C

>  <SeqNum>  (17) 
998

>  <Name>  (17) 
N-{[(4-hydroxyphenyl)carbonyl]carbamoyl}-beta-D-glucopyranosylamine

>  <SystematicName>  (17) 
4-hydroxy-N-[[(2R,3R,4S,5S,6R)-3,4,5-trihydroxy-6-(hydroxymethyl)oxan-2-yl]carbamoyl]benzamide

>  <Synonyms>  (17) 


>  <Type>  (17) 
NON-POLYMER

>  <Formula>  (17) 
C14 H18 N2 O8

>  <ObservedFormula>  (17) 
C14 N2 O8

>  <MolecularWeight>  (17) 
342.301

>  <ModifiedDate>  (17) 
2011-06-04

>  <Parent>  (17) 


>  <OneLetterCode>  (17) 


>  <SubcomponentList>  (17) 


>  <AmbiguousFlag>  (17) 
N

>  <InsertionCode>  (17) 


>  <InstanceId>  (17) 
2QN7_HBZ_A_998

>  <ChemCompId>  (17) 
HBZ

>  <PdbId>  (17) 
2QN7

>  <ResidueNumber>  (17) 
998

>  <InChI>  (17) 
InChI=1S/C14H18N2O8/c17-5-8-9(19)10(20)11(21)13(24-8)16-14(23)15-12(22)6-1-3-7(18)4-2-6/h1-4,8-11,13,17-21H,5H2,(H2,15,16,22,23)/t8-,9-,10+,11-,13-/m1/s1

>  <InChIKey>  (17) 
YHOJJLBUFKEFNL-BZNQNGANSA-N

>  <SMILES>  (17) 
c1cc(ccc1C(=O)NC(=O)N[C@H]2[C@@H]([C@H]([C@@H]([C@H](O2)CO)O)O)O)O

>  <MissingHeavyAtoms>  (17) 
0

>  <Model>  (17) 
1

>  <AltIds>  (17) 


>  <pKI>  (17) 
5.2

>  <ChemblID>  (17) 
CHEMBL552199

>  <standardized_canonical_smiles>  (17) 
O=C(NC(=O)c1ccc(O)cc1)N[C@@H]1O[C@H](CO)[C@@H](O)[C@H](O)[C@H]1O

$$$$
1XKX_IMK_A_998
     RDKit          3D

 20 22  0  0  0  0  0  0  0  0999 V2000
   33.4330   22.9170   27.9120 C   0  0  0  0  0  0  0  0  0  0  0  0
   33.7880   23.1590   26.4010 C   0  0  0  0  0  0  0  0  0  0  0  0
   33.9520   24.5590   26.1130 O   0  0  0  0  0  0  0  0  0  0  0  0
   32.6320   22.5820   25.5290 C   0  0  0  0  0  0  0  0  0  0  0  0
   32.8930   22.7550   24.1220 O   0  0  0  0  0  0  0  0  0  0  0  0
   32.4690   21.0800   25.8590 C   0  0  0  0  0  0  0  0  0  0  0  0
   31.3900   20.5130   25.0960 O   0  0  0  0  0  0  0  0  0  0  0  0
   32.2030   20.8940   27.3850 C   0  0  0  0  0  0  0  0  0  0  0  0
   33.2580   21.4910   28.1830 O   0  0  0  0  0  0  0  0  0  0  0  0
   32.0830   19.3910   27.7600 C   0  0  0  0  0  0  0  0  0  0  0  0
   33.1800   18.6560   27.1800 O   0  0  0  0  0  0  0  0  0  0  0  0
   37.8020   23.8940   30.0550 C   0  0  0  0  0  0  0  0  0  0  0  0
   36.4280   23.8050   29.7270 C   0  0  0  0  0  0  0  0  0  0  0  0
   35.4150   24.3530   30.5410 C   0  0  0  0  0  0  0  0  0  0  0  0
   35.7100   25.0460   31.7520 C   0  0  0  0  0  0  0  0  0  0  0  0
   37.0940   25.1450   32.1000 C   0  0  0  0  0  0  0  0  0  0  0  0
   38.1130   24.5850   31.2700 C   0  0  0  0  0  0  0  0  0  0  0  0
   34.2400   24.0850   29.9390 N   0  0  0  0  0  0  0  0  0  0  0  0
   34.5100   23.4180   28.8470 C   0  0  0  0  0  0  0  0  0  0  0  0
   35.7700   23.2370   28.6920 N   0  0  0  0  0  0  0  0  0  0  0  0
  2  1  1  0
  9  1  1  0
 19  1  1  0
  3  2  1  0
  4  2  1  0
  5  4  1  0
  6  4  1  0
  7  6  1  0
  8  6  1  0
  9  8  1  0
 10  8  1  0
 11 10  1  0
 13 12  2  0
 17 12  1  0
 14 13  1  0
 20 13  1  0
 15 14  2  0
 18 14  1  0
 16 15  1  0
 17 16  2  0
 19 18  1  0
 20 19  2  0
A    1
C1
A    2
C2
A    3
O2
A    4
C3
A    5
O3
A    6
C4
A    7
O4
A    8
C5
A    9
O5
A   10
C6
A   11
O6
A   12
C7
A   13
C8
A   14
C9
A   15
C10
A   16
C11
A   17
C12
A   18
N1
A   19
C13
A   20
N2
M  END
>  <Id>  (18) 
1XKX_IMK_A_998

>  <ChainId>  (18) 
A

>  <AsymId>  (18) 
D

>  <SeqNum>  (18) 
998

>  <Name>  (18) 
2-(BETA-D-GLUCOPYRANOSYL)-5-METHYL-1-BENZIMIDAZOLE

>  <SystematicName>  (18) 
(2R,3S,4R,5R,6S)-2-(hydroxymethyl)-6-(5-methyl-1H-benzimidazol-2-yl)oxane-3,4,5-triol

>  <Synonyms>  (18) 
2-(BETA-D-GLUCOPYRANOSYL)-5-METHYL-1,2,3-BENZIMIDAZOLE

>  <Type>  (18) 
NON-POLYMER

>  <Formula>  (18) 
C14 H18 N2 O5

>  <ObservedFormula>  (18) 
C13 N2 O5

>  <MolecularWeight>  (18) 
294.303

>  <ModifiedDate>  (18) 
2012-12-21

>  <Parent>  (18) 


>  <OneLetterCode>  (18) 


>  <SubcomponentList>  (18) 


>  <AmbiguousFlag>  (18) 
N

>  <InsertionCode>  (18) 


>  <InstanceId>  (18) 
1XKX_IMK_A_998

>  <ChemCompId>  (18) 
IMK

>  <PdbId>  (18) 
1XKX

>  <ResidueNumber>  (18) 
998

>  <InChI>  (18) 
InChI=1S/C14H18N2O5/c1-6-2-3-7-8(4-6)16-14(15-7)13-12(20)11(19)10(18)9(5-17)21-13/h2-4,9-13,17-20H,5H2,1H3,(H,15,16)/t9-,10-,11+,12-,13-/m1/s1

>  <InChIKey>  (18) 
XIJZORUYQZBFJK-UJPOAAIJSA-N

>  <SMILES>  (18) 
Cc1ccc2c(c1)nc([nH]2)[C@H]3[C@@H]([C@H]([C@@H]([C@H](O3)CO)O)O)O

>  <MissingHeavyAtoms>  (18) 
1

>  <Model>  (18) 
1

>  <AltIds>  (18) 


>  <pKI>  (18) 
5.03

>  <ChemblID>  (18) 
CHEMBL558445

>  <standardized_canonical_smiles>  (18) 
OC[C@H]1O[C@@H](c2nc3ccccc3[nH]2)[C@H](O)[C@@H](O)[C@@H]1O

$$$$
1XL1_TH1_A_998
     RDKit          3D

 20 22  0  0  0  0  0  0  0  0999 V2000
   33.3080   22.9730   28.0060 C   0  0  0  0  0  0  0  0  0  0  0  0
   33.6960   23.2110   26.4600 C   0  0  0  0  0  0  0  0  0  0  0  0
   33.8620   24.5770   26.1630 O   0  0  0  0  0  0  0  0  0  0  0  0
   32.5590   22.6180   25.5530 C   0  0  0  0  0  0  0  0  0  0  0  0
   32.8460   22.7750   24.1630 O   0  0  0  0  0  0  0  0  0  0  0  0
   32.4020   21.1180   25.8780 C   0  0  0  0  0  0  0  0  0  0  0  0
   31.3890   20.5590   25.1160 O   0  0  0  0  0  0  0  0  0  0  0  0
   32.1050   20.8980   27.4290 C   0  0  0  0  0  0  0  0  0  0  0  0
   33.1350   21.4980   28.2600 O   0  0  0  0  0  0  0  0  0  0  0  0
   31.9950   19.4160   27.8020 C   0  0  0  0  0  0  0  0  0  0  0  0
   33.0110   18.6850   27.1020 O   0  0  0  0  0  0  0  0  0  0  0  0
   34.4030   23.5040   28.9760 C   0  0  0  0  0  0  0  0  0  0  0  0
   34.0410   24.1190   30.0450 N   0  0  0  0  0  0  0  0  0  0  0  0
   35.0350   24.5410   30.8490 C   0  0  0  0  0  0  0  0  0  0  0  0
   34.9400   25.2460   32.0850 C   0  0  0  0  0  0  0  0  0  0  0  0
   36.1650   25.5780   32.7440 C   0  0  0  0  0  0  0  0  0  0  0  0
   37.4300   25.2230   32.1810 C   0  0  0  0  0  0  0  0  0  0  0  0
   37.5020   24.5200   30.9430 C   0  0  0  0  0  0  0  0  0  0  0  0
   36.2780   24.1960   30.2880 C   0  0  0  0  0  0  0  0  0  0  0  0
   36.1730   23.3330   28.7540 S   0  0  0  0  0  0  0  0  0  0  0  0
  2  1  1  0
  9  1  1  0
 12  1  1  0
  3  2  1  0
  4  2  1  0
  5  4  1  0
  6  4  1  0
  7  6  1  0
  8  6  1  0
  9  8  1  0
 10  8  1  0
 11 10  1  0
 13 12  2  0
 20 12  1  0
 14 13  1  0
 15 14  2  0
 19 14  1  0
 16 15  1  0
 17 16  2  0
 18 17  1  0
 19 18  2  0
 20 19  1  0
A    1
C1
A    2
C2
A    3
O2
A    4
C3
A    5
O3
A    6
C4
A    7
O4
A    8
C5
A    9
O5
A   10
C6
A   11
O6
A   12
C7
A   13
N1
A   14
C8
A   15
C9
A   16
C10
A   17
C11
A   18
C12
A   19
C13
A   20
S1
M  END
>  <Id>  (19) 
1XL1_TH1_A_998

>  <ChainId>  (19) 
A

>  <AsymId>  (19) 
B

>  <SeqNum>  (19) 
998

>  <Name>  (19) 
2-(BETA-D-GLUCOPYRANOSYL)-5-METHYL-BENZOTHIAZOLE

>  <SystematicName>  (19) 
(2R,3S,4S,5R,6R)-2-(hydroxymethyl)-6-(5-methyl-1,3-benzothiazol-2-yl)oxane-3,4,5-triol

>  <Synonyms>  (19) 
2-(BETA-D-GLUCOPYRANOSYL)-5-METHYL-1,3,4-BENZOTHIAZOLE

>  <Type>  (19) 
NON-POLYMER

>  <Formula>  (19) 
C14 H17 N O5 S

>  <ObservedFormula>  (19) 
C13 S N O5

>  <MolecularWeight>  (19) 
311.353

>  <ModifiedDate>  (19) 
2012-12-21

>  <Parent>  (19) 


>  <OneLetterCode>  (19) 


>  <SubcomponentList>  (19) 


>  <AmbiguousFlag>  (19) 
N

>  <InsertionCode>  (19) 


>  <InstanceId>  (19) 
1XL1_TH1_A_998

>  <ChemCompId>  (19) 
TH1

>  <PdbId>  (19) 
1XL1

>  <ResidueNumber>  (19) 
998

>  <InChI>  (19) 
InChI=1S/C14H17NO5S/c1-6-2-3-9-7(4-6)15-14(21-9)13-12(19)11(18)10(17)8(5-16)20-13/h2-4,8,10-13,16-19H,5H2,1H3/t8-,10-,11+,12-,13-/m1/s1

>  <InChIKey>  (19) 
WGJFWQVWYRZPEP-KABOQKQYSA-N

>  <SMILES>  (19) 
Cc1ccc2c(c1)nc(s2)[C@H]3[C@@H]([C@H]([C@@H]([C@H](O3)CO)O)O)O

>  <MissingHeavyAtoms>  (19) 
1

>  <Model>  (19) 
1

>  <AltIds>  (19) 


>  <pKI>  (19) 
4.12

>  <ChemblID>  (19) 
CHEMBL559793

>  <standardized_canonical_smiles>  (19) 
OC[C@H]1O[C@@H](c2nc3ccccc3s2)[C@H](O)[C@@H](O)[C@@H]1O

$$$$
1FTW_GL5_A_998
     RDKit          3D

 18 19  0  0  0  0  0  0  0  0999 V2000
   33.8860   22.7750   27.6670 C   0  0  0  0  0  0  0  0  0  0  0  0
   33.8950   23.0860   26.1250 C   0  0  0  0  0  0  0  0  0  0  0  0
   33.9900   24.5230   25.8870 O   0  0  0  0  0  0  0  0  0  0  0  0
   32.5780   22.5170   25.4040 C   0  0  0  0  0  0  0  0  0  0  0  0
   32.6070   22.6220   24.0150 O   0  0  0  0  0  0  0  0  0  0  0  0
   32.3720   21.0350   25.8140 C   0  0  0  0  0  0  0  0  0  0  0  0
   31.2000   20.5260   25.2370 O   0  0  0  0  0  0  0  0  0  0  0  0
   32.2960   20.9250   27.4640 C   0  0  0  0  0  0  0  0  0  0  0  0
   32.0890   19.4540   27.8880 C   0  0  0  0  0  0  0  0  0  0  0  0
   33.1950   18.7230   27.4310 O   0  0  0  0  0  0  0  0  0  0  0  0
   33.5670   21.3920   27.9660 O   0  0  0  0  0  0  0  0  0  0  0  0
   35.2020   23.0150   28.2390 N   0  0  0  0  0  0  0  0  0  0  0  0
   35.1410   23.8940   29.2530 C   0  0  0  0  0  0  0  0  0  0  0  0
   36.1380   24.3120   29.8660 O   0  0  0  0  0  0  0  0  0  0  0  0
   33.8780   24.3270   29.5300 N   0  0  0  0  0  0  0  0  0  0  0  0
   33.0470   23.7170   28.5970 C   0  0  0  0  0  0  0  0  0  0  0  0
   31.7580   23.9030   28.4990 O   0  0  0  0  0  0  0  0  0  0  0  0
   33.4620   25.2490   30.4820 O   0  0  0  0  0  0  0  0  0  0  0  0
  2  1  1  0
 11  1  1  0
 12  1  1  0
 16  1  1  0
  3  2  1  0
  4  2  1  0
  5  4  1  0
  6  4  1  0
  7  6  1  0
  8  6  1  0
  9  8  1  0
 11  8  1  0
 10  9  1  0
 13 12  1  0
 14 13  2  0
 15 13  1  0
 16 15  1  0
 18 15  1  0
 17 16  2  0
A    1
C1
A    2
C2
A    3
O2
A    4
C3
A    5
O3
A    6
C4
A    7
O4
A    8
C5
A    9
C6
A   10
O6
A   11
O5
A   12
N2
A   13
C8
A   14
O8
A   15
N1
A   16
C7
A   17
O7
A   18
O9
M  END
>  <Id>  (20) 
1FTW_GL5_A_998

>  <ChainId>  (20) 
A

>  <AsymId>  (20) 
B

>  <SeqNum>  (20) 
998

>  <Name>  (20) 
3,8,9,10-TETRAHYDROXY-7-HYDROXYMETHYL-6-OXA-1,3-DIAZA-SPIRO[4.5]DECANE-2,4-DIONE

>  <SystematicName>  (20) 
(5S,6R,7S,8S,9R)-3,6,7,8-tetrahydroxy-9-(hydroxymethyl)-10-oxa-1,3-diazaspiro[4.5]decane-2,4-dione

>  <Synonyms>  (20) 


>  <Type>  (20) 
D-SACCHARIDE

>  <Formula>  (20) 
C8 H12 N2 O8

>  <ObservedFormula>  (20) 
C8 N2 O8

>  <MolecularWeight>  (20) 
264.189

>  <ModifiedDate>  (20) 
2011-06-04

>  <Parent>  (20) 


>  <OneLetterCode>  (20) 


>  <SubcomponentList>  (20) 


>  <AmbiguousFlag>  (20) 
N

>  <InsertionCode>  (20) 


>  <InstanceId>  (20) 
1FTW_GL5_A_998

>  <ChemCompId>  (20) 
GL5

>  <PdbId>  (20) 
1FTW

>  <ResidueNumber>  (20) 
998

>  <InChI>  (20) 
InChI=1S/C8H12N2O8/c11-1-2-3(12)4(13)5(14)8(18-2)6(15)10(17)7(16)9-8/h2-5,11-14,17H,1H2,(H,9,16)/t2-,3-,4+,5-,8+/m1/s1

>  <InChIKey>  (20) 
IHDZZZHACPJCFJ-WWHASAIZSA-N

>  <SMILES>  (20) 
C([C@@H]1[C@H]([C@@H]([C@H]([C@]2(O1)C(=O)N(C(=O)N2)O)O)O)O)O

>  <MissingHeavyAtoms>  (20) 
0

>  <Model>  (20) 
1

>  <AltIds>  (20) 


>  <pKI>  (20) 
4.41

>  <ChemblID>  (20) 
CHEMBL611940

>  <standardized_canonical_smiles>  (20) 
O=C1N[C@@]2(O[C@H](CO)[C@@H](O)[C@H](O)[C@H]2O)C(=O)N1O

$$$$
2QRG_M07_A_998
     RDKit          3D

 23 25  0  0  0  0  0  0  0  0999 V2000
   37.2640   26.6140   35.0690 C   0  0  0  0  0  0  0  0  0  0  0  0
   37.9810   26.0510   33.9560 O   0  0  0  0  0  0  0  0  0  0  0  0
   37.1670   25.5740   32.9600 C   0  0  0  0  0  0  0  0  0  0  0  0
   37.7550   25.0240   31.8220 C   0  0  0  0  0  0  0  0  0  0  0  0
   36.9620   24.5260   30.7830 C   0  0  0  0  0  0  0  0  0  0  0  0
   35.7670   25.6230   33.0530 C   0  0  0  0  0  0  0  0  0  0  0  0
   34.9750   25.1210   32.0150 C   0  0  0  0  0  0  0  0  0  0  0  0
   35.5710   24.5660   30.8780 C   0  0  0  0  0  0  0  0  0  0  0  0
   34.7850   24.0860   29.8200 C   0  0  0  0  0  0  0  0  0  0  0  0
   35.2840   23.3430   28.5820 C   0  0  0  0  0  0  0  0  0  0  0  0
   33.4700   24.2530   29.6950 N   0  0  0  0  0  0  0  0  0  0  0  0
   32.9520   23.6970   28.4860 O   0  0  0  0  0  0  0  0  0  0  0  0
   33.9930   22.9180   27.8760 C   0  0  0  0  0  0  0  0  0  0  0  0
   33.7750   21.5110   28.1170 O   0  0  0  0  0  0  0  0  0  0  0  0
   32.5500   20.9950   27.5300 C   0  0  0  0  0  0  0  0  0  0  0  0
   32.4080   19.5330   27.9740 C   0  0  0  0  0  0  0  0  0  0  0  0
   33.4000   18.7350   27.3090 O   0  0  0  0  0  0  0  0  0  0  0  0
   32.5900   21.1640   25.9950 C   0  0  0  0  0  0  0  0  0  0  0  0
   31.3630   20.6960   25.4160 O   0  0  0  0  0  0  0  0  0  0  0  0
   32.8400   22.6280   25.6070 C   0  0  0  0  0  0  0  0  0  0  0  0
   33.0610   22.7310   24.1940 O   0  0  0  0  0  0  0  0  0  0  0  0
   34.0610   23.1980   26.3570 C   0  0  0  0  0  0  0  0  0  0  0  0
   34.1640   24.6070   26.1110 O   0  0  0  0  0  0  0  0  0  0  0  0
  2  1  1  0
  3  2  1  0
  4  3  2  0
  6  3  1  0
  5  4  1  0
  8  5  2  0
  7  6  2  0
  8  7  1  0
  9  8  1  0
 10  9  1  0
 11  9  2  0
 13 10  1  0
 12 11  1  0
 13 12  1  0
 14 13  1  0
 22 13  1  0
 15 14  1  0
 16 15  1  0
 18 15  1  0
 17 16  1  0
 19 18  1  0
 20 18  1  0
 21 20  1  0
 22 20  1  0
 23 22  1  0
A    1
C15
A    2
O8
A    3
C12
A    4
C11
A    5
C10
A    6
C13
A    7
C14
A    8
C9
A    9
C8
A   10
C7
A   11
N1
A   12
O7
A   13
C1
A   14
O5
A   15
C5
A   16
C6
A   17
O6
A   18
C4
A   19
O4
A   20
C3
A   21
O3
A   22
C2
A   23
O2
M  END
>  <Id>  (21) 
2QRG_M07_A_998

>  <ChainId>  (21) 
A

>  <AsymId>  (21) 
B

>  <SeqNum>  (21) 
998

>  <Name>  (21) 
(5R,7R,8S,9S,10R)-7-(HYDROXYMETHYL)-3-(4-METHOXYPHENYL)-1,6-DIOXA-2-AZASPIRO[4.5]DEC-2-ENE-8,9,10-TRIOL

>  <SystematicName>  (21) 
(5R,6R,7S,8S,9R)-9-(hydroxymethyl)-3-(4-methoxyphenyl)-1,10-dioxa-2-azaspiro[4.5]dec-2-ene-6,7,8-triol

>  <Synonyms>  (21) 
(1R)-3'-(4-METHOXYPHENYL)-SPIRO[1,5-ANHYDRO-D-GLUCITOL-1,5'-ISOXAZOLINE]

>  <Type>  (21) 
NON-POLYMER

>  <Formula>  (21) 
C15 H19 N O7

>  <ObservedFormula>  (21) 
C15 N O7

>  <MolecularWeight>  (21) 
325.314

>  <ModifiedDate>  (21) 
2011-06-04

>  <Parent>  (21) 


>  <OneLetterCode>  (21) 


>  <SubcomponentList>  (21) 


>  <AmbiguousFlag>  (21) 


>  <InsertionCode>  (21) 


>  <InstanceId>  (21) 
2QRG_M07_A_998

>  <ChemCompId>  (21) 
M07

>  <PdbId>  (21) 
2QRG

>  <ResidueNumber>  (21) 
998

>  <InChI>  (21) 
InChI=1S/C15H19NO7/c1-21-9-4-2-8(3-5-9)10-6-15(23-16-10)14(20)13(19)12(18)11(7-17)22-15/h2-5,11-14,17-20H,6-7H2,1H3/t11-,12-,13+,14-,15-/m1/s1

>  <InChIKey>  (21) 
SCPKUJWXPVROSY-UXXRCYHCSA-N

>  <SMILES>  (21) 
COc1ccc(cc1)C2=NO[C@]3(C2)[C@@H]([C@H]([C@@H]([C@H](O3)CO)O)O)O

>  <MissingHeavyAtoms>  (21) 
0

>  <Model>  (21) 
1

>  <AltIds>  (21) 


>  <pKI>  (21) 
5.18

>  <ChemblID>  (21) 
CHEMBL593092

>  <standardized_canonical_smiles>  (21) 
COc1ccc(C2=NO[C@@]3(C2)O[C@H](CO)[C@@H](O)[C@H](O)[C@H]3O)cc1

$$$$
2QRH_M08_A_998
     RDKit          3D

 21 23  0  0  0  0  0  0  0  0999 V2000
   34.7020   24.0540   29.8520 C   0  0  0  0  0  0  0  0  0  0  0  0
   33.3890   24.2240   29.7090 N   0  0  0  0  0  0  0  0  0  0  0  0
   32.5900   21.1960   25.9930 C   0  0  0  0  0  0  0  0  0  0  0  0
   37.6340   24.8740   31.9530 C   0  0  0  0  0  0  0  0  0  0  0  0
   34.8420   24.9550   32.0950 C   0  0  0  0  0  0  0  0  0  0  0  0
   34.0550   23.2250   26.3670 C   0  0  0  0  0  0  0  0  0  0  0  0
   32.3190   19.5650   27.9670 C   0  0  0  0  0  0  0  0  0  0  0  0
   36.8630   24.4410   30.8680 C   0  0  0  0  0  0  0  0  0  0  0  0
   33.7250   21.5120   28.1200 O   0  0  0  0  0  0  0  0  0  0  0  0
   35.2310   23.3450   28.6120 C   0  0  0  0  0  0  0  0  0  0  0  0
   35.6120   25.3910   33.1770 C   0  0  0  0  0  0  0  0  0  0  0  0
   33.3060   18.7600   27.3130 O   0  0  0  0  0  0  0  0  0  0  0  0
   34.1880   24.6390   26.1340 O   0  0  0  0  0  0  0  0  0  0  0  0
   33.9570   22.9260   27.8830 C   0  0  0  0  0  0  0  0  0  0  0  0
   33.0330   22.7460   24.1940 O   0  0  0  0  0  0  0  0  0  0  0  0
   35.4680   24.4780   30.9410 C   0  0  0  0  0  0  0  0  0  0  0  0
   31.3940   20.7240   25.3640 O   0  0  0  0  0  0  0  0  0  0  0  0
   37.0060   25.3460   33.1030 C   0  0  0  0  0  0  0  0  0  0  0  0
   32.4970   21.0230   27.5240 C   0  0  0  0  0  0  0  0  0  0  0  0
   32.8320   22.6630   25.6110 C   0  0  0  0  0  0  0  0  0  0  0  0
   32.9030   23.7020   28.4730 O   0  0  0  0  0  0  0  0  0  0  0  0
 18 11  1  0
 14 21  1  0
 13  6  1  0
 19  7  1  0
  3 19  1  0
  2  1  2  0
  1 16  1  0
  5 11  2  0
 10  1  1  0
 16  5  1  0
 17  3  1  0
 14  9  1  0
  4 18  2  0
 19  9  1  0
  8 16  2  0
  6 14  1  0
 14 10  1  0
 21  2  1  0
 15 20  1  0
 20  3  1  0
 12  7  1  0
 20  6  1  0
  8  4  1  0
A    1
C8
A    2
N1
A    3
C4
A    4
C11
A    5
C14
A    6
C2
A    7
C6
A    8
C10
A    9
O5
A   10
C7
A   11
C13
A   12
O6
A   13
O2
A   14
C1
A   15
O3
A   16
C9
A   17
O4
A   18
C12
A   19
C5
A   20
C3
A   21
O7
M  END
>  <InstanceId>  (22) 
2QRH_M08_A_998

>  <ChemCompId>  (22) 
M08

>  <PdbId>  (22) 
2QRH

>  <ChainId>  (22) 
A

>  <ResidueNumber>  (22) 
998

>  <InsertionCode>  (22) 


>  <Model>  (22) 
1

>  <AltIds>  (22) 


>  <MissingHeavyAtoms>  (22) 
0

>  <ObservedFormula>  (22) 
C14 N O6

>  <AsymId>  (22) 
B

>  <SeqNum>  (22) 
998

>  <Name>  (22) 
(5R,7R,8S,9S,10R)-7-(hydroxymethyl)-3-phenyl-1,6-dioxa-2-azaspiro[4.5]dec-2-ene-8,9,10-triol

>  <SystematicName>  (22) 
(5R,6R,7S,8S,9R)-9-(hydroxymethyl)-3-phenyl-1,10-dioxa-2-azaspiro[4.5]dec-2-ene-6,7,8-triol

>  <Synonyms>  (22) 
(1R)-3'-phenylspiro[1,5-anhydro-D-glucitol-1,5'-isoxazoline]

>  <Type>  (22) 
NON-POLYMER

>  <Formula>  (22) 
C14 H17 N O6

>  <MolecularWeight>  (22) 
295.288

>  <ModifiedDate>  (22) 
2011-06-04

>  <Parent>  (22) 


>  <OneLetterCode>  (22) 


>  <SubcomponentList>  (22) 


>  <AmbiguousFlag>  (22) 


>  <InChI>  (22) 
null

>  <InChIKey>  (22) 
null

>  <SMILES>  (22) 
c1ccc(cc1)C2=NO[C@]3(C2)[C@@H]([C@H]([C@@H]([C@H](O3)CO)O)O)O

>  <pKI>  (22) 
4.71

>  <ChemblID>  (22) 
CHEMBL594972

>  <standardized_canonical_smiles>  (22) 
OC[C@H]1O[C@@]2(CC(c3ccccc3)=NO2)[C@H](O)[C@@H](O)[C@@H]1O

$$$$
3G2I_RUG_A_998
     RDKit          3D

 18 19  0  0  0  0  0  0  0  0999 V2000
   33.7250   24.4130   25.9160 O   0  0  0  0  0  0  0  0  0  0  0  0
   33.5290   23.0250   26.2030 C   0  0  0  0  0  0  0  0  0  0  0  0
   32.4050   22.4270   25.3340 C   0  0  0  0  0  0  0  0  0  0  0  0
   32.7480   22.4900   23.9510 O   0  0  0  0  0  0  0  0  0  0  0  0
   32.1730   20.9630   25.7180 C   0  0  0  0  0  0  0  0  0  0  0  0
   31.0180   20.4990   25.0410 O   0  0  0  0  0  0  0  0  0  0  0  0
   31.9770   20.8110   27.2380 C   0  0  0  0  0  0  0  0  0  0  0  0
   31.8230   19.3540   27.6700 C   0  0  0  0  0  0  0  0  0  0  0  0
   32.8840   18.5750   27.1120 O   0  0  0  0  0  0  0  0  0  0  0  0
   33.1260   21.3710   27.9090 O   0  0  0  0  0  0  0  0  0  0  0  0
   33.2030   22.8100   27.6970 C   0  0  0  0  0  0  0  0  0  0  0  0
   34.2470   23.3150   28.6080 N   0  0  0  0  0  0  0  0  0  0  0  0
   35.5700   23.2160   28.4750 C   0  0  0  0  0  0  0  0  0  0  0  0
   33.9720   23.8850   29.6710 N   0  0  0  0  0  0  0  0  0  0  0  0
   35.0100   24.2020   30.2690 N   0  0  0  0  0  0  0  0  0  0  0  0
   36.0620   23.8000   29.5550 C   0  0  0  0  0  0  0  0  0  0  0  0
   37.5380   23.9790   29.9050 C   0  0  0  0  0  0  0  0  0  0  0  0
   37.6890   24.1030   31.3210 O   0  0  0  0  0  0  0  0  0  0  0  0
  2  1  1  0
  3  2  1  0
 11  2  1  0
  4  3  1  0
  5  3  1  0
  6  5  1  0
  7  5  1  0
  8  7  1  0
 10  7  1  0
  9  8  1  0
 11 10  1  0
 12 11  1  0
 13 12  1  0
 14 12  1  0
 16 13  2  0
 15 14  2  0
 16 15  1  0
 17 16  1  0
 18 17  1  0
A    1
O2
A    2
C2
A    3
C3
A    4
O3
A    5
C4
A    6
O4
A    7
C5
A    8
C6
A    9
O6
A   10
O5
A   11
C1
A   12
N1
A   13
C7
A   14
N2
A   15
N3
A   16
C8
A   17
C9
A   18
O9
M  END
>  <Id>  (23) 
3G2I_RUG_A_998

>  <ChainId>  (23) 
A

>  <AsymId>  (23) 
B

>  <SeqNum>  (23) 
998

>  <Name>  (23) 
1-beta-D-glucopyranosyl-4-(hydroxymethyl)-1H-1,2,3-triazole

>  <SystematicName>  (23) 
(2R,3S,4S,5R,6R)-2-(hydroxymethyl)-6-[4-(hydroxymethyl)-1,2,3-triazol-1-yl]oxane-3,4,5-triol

>  <Synonyms>  (23) 


>  <Type>  (23) 
NON-POLYMER

>  <Formula>  (23) 
C9 H15 N3 O6

>  <ObservedFormula>  (23) 
C9 N3 O6

>  <MolecularWeight>  (23) 
261.232

>  <ModifiedDate>  (23) 
2011-06-04

>  <Parent>  (23) 


>  <OneLetterCode>  (23) 


>  <SubcomponentList>  (23) 


>  <AmbiguousFlag>  (23) 
N

>  <InsertionCode>  (23) 


>  <InstanceId>  (23) 
3G2I_RUG_A_998

>  <ChemCompId>  (23) 
RUG

>  <PdbId>  (23) 
3G2I

>  <ResidueNumber>  (23) 
998

>  <InChI>  (23) 
InChI=1S/C9H15N3O6/c13-2-4-1-12(11-10-4)9-8(17)7(16)6(15)5(3-14)18-9/h1,5-9,13-17H,2-3H2/t5-,6-,7+,8-,9-/m1/s1

>  <InChIKey>  (23) 
BHGZOVXPACYZLI-SYHAXYEDSA-N

>  <SMILES>  (23) 
c1c(nnn1[C@H]2[C@@H]([C@H]([C@@H]([C@H](O2)CO)O)O)O)CO

>  <MissingHeavyAtoms>  (23) 
0

>  <Model>  (23) 
1

>  <AltIds>  (23) 


>  <pKI>  (23) 
4.72

>  <ChemblID>  (23) 
CHEMBL602068

>  <standardized_canonical_smiles>  (23) 
OCc1cn([C@@H]2O[C@H](CO)[C@@H](O)[C@H](O)[C@H]2O)nn1

$$$$
3G2K_SKY_A_998
     RDKit          3D

 26 29  0  0  0  0  0  0  0  0999 V2000
   36.3060   25.3510   32.4860 C   0  0  0  0  0  0  0  0  0  0  0  0
   37.4310   25.7570   33.2120 C   0  0  0  0  0  0  0  0  0  0  0  0
   37.2850   26.3610   34.4670 C   0  0  0  0  0  0  0  0  0  0  0  0
   38.4180   26.7640   35.1850 C   0  0  0  0  0  0  0  0  0  0  0  0
   39.6960   26.5690   34.6520 C   0  0  0  0  0  0  0  0  0  0  0  0
   39.8400   25.9660   33.3990 C   0  0  0  0  0  0  0  0  0  0  0  0
   38.7100   25.5580   32.6800 C   0  0  0  0  0  0  0  0  0  0  0  0
   38.8520   24.9570   31.4270 C   0  0  0  0  0  0  0  0  0  0  0  0
   37.7260   24.5510   30.7050 C   0  0  0  0  0  0  0  0  0  0  0  0
   36.4430   24.7460   31.2280 C   0  0  0  0  0  0  0  0  0  0  0  0
   35.3000   24.3490   30.5180 C   0  0  0  0  0  0  0  0  0  0  0  0
   35.2110   23.6790   29.3610 C   0  0  0  0  0  0  0  0  0  0  0  0
   34.0380   24.5740   30.8910 N   0  0  0  0  0  0  0  0  0  0  0  0
   33.2660   24.1010   30.0520 N   0  0  0  0  0  0  0  0  0  0  0  0
   33.8990   23.5740   29.1300 N   0  0  0  0  0  0  0  0  0  0  0  0
   33.1660   22.9230   28.0190 C   0  0  0  0  0  0  0  0  0  0  0  0
   33.2140   21.4890   28.2640 O   0  0  0  0  0  0  0  0  0  0  0  0
   32.1550   20.8410   27.5140 C   0  0  0  0  0  0  0  0  0  0  0  0
   32.1120   19.3730   27.9560 C   0  0  0  0  0  0  0  0  0  0  0  0
   33.2760   18.6840   27.4800 O   0  0  0  0  0  0  0  0  0  0  0  0
   32.3680   21.0090   25.9820 C   0  0  0  0  0  0  0  0  0  0  0  0
   31.2010   20.5580   25.2980 O   0  0  0  0  0  0  0  0  0  0  0  0
   32.6630   22.4740   25.5850 C   0  0  0  0  0  0  0  0  0  0  0  0
   33.1710   22.5200   24.2430 O   0  0  0  0  0  0  0  0  0  0  0  0
   33.6580   23.1290   26.5730 C   0  0  0  0  0  0  0  0  0  0  0  0
   33.8240   24.5240   26.3010 O   0  0  0  0  0  0  0  0  0  0  0  0
  2  1  2  0
 10  1  1  0
  3  2  1  0
  7  2  1  0
  4  3  2  0
  5  4  1  0
  6  5  2  0
  7  6  1  0
  8  7  2  0
  9  8  1  0
 10  9  2  0
 11 10  1  0
 12 11  2  0
 13 11  1  0
 15 12  1  0
 14 13  2  0
 15 14  1  0
 16 15  1  0
 17 16  1  0
 25 16  1  0
 18 17  1  0
 19 18  1  0
 21 18  1  0
 20 19  1  0
 22 21  1  0
 23 21  1  0
 24 23  1  0
 25 23  1  0
 26 25  1  0
A    1
C10
A    2
C11
A    3
C12
A    4
C13
A    5
C14
A    6
C15
A    7
C16
A    8
C17
A    9
C18
A   10
C9
A   11
C8
A   12
C7
A   13
N3
A   14
N2
A   15
N1
A   16
C1
A   17
O5
A   18
C5
A   19
C6
A   20
O6
A   21
C4
A   22
O4
A   23
C3
A   24
O3
A   25
C2
A   26
O2
M  END
>  <Id>  (24) 
3G2K_SKY_A_998

>  <ChainId>  (24) 
A

>  <AsymId>  (24) 
B

>  <SeqNum>  (24) 
998

>  <Name>  (24) 
1-beta-D-glucopyranosyl-4-naphthalen-2-yl-1H-1,2,3-triazole

>  <SystematicName>  (24) 
(2R,3S,4S,5R,6R)-2-(hydroxymethyl)-6-(4-naphthalen-2-yl-1,2,3-triazol-1-yl)oxane-3,4,5-triol

>  <Synonyms>  (24) 


>  <Type>  (24) 
NON-POLYMER

>  <Formula>  (24) 
C18 H19 N3 O5

>  <ObservedFormula>  (24) 
C18 N3 O5

>  <MolecularWeight>  (24) 
357.361

>  <ModifiedDate>  (24) 
2011-06-04

>  <Parent>  (24) 


>  <OneLetterCode>  (24) 


>  <SubcomponentList>  (24) 


>  <AmbiguousFlag>  (24) 
N

>  <InsertionCode>  (24) 


>  <InstanceId>  (24) 
3G2K_SKY_A_998

>  <ChemCompId>  (24) 
SKY

>  <PdbId>  (24) 
3G2K

>  <ResidueNumber>  (24) 
998

>  <InChI>  (24) 
InChI=1S/C18H19N3O5/c22-9-14-15(23)16(24)17(25)18(26-14)21-8-13(19-20-21)12-6-5-10-3-1-2-4-11(10)7-12/h1-8,14-18,22-25H,9H2/t14-,15-,16+,17-,18-/m1/s1

>  <InChIKey>  (24) 
BQMXQDYTYFMQSE-UYTYNIKBSA-N

>  <SMILES>  (24) 
c1ccc2cc(ccc2c1)c3cn(nn3)[C@H]4[C@@H]([C@H]([C@@H]([C@H](O4)CO)O)O)O

>  <MissingHeavyAtoms>  (24) 
0

>  <Model>  (24) 
1

>  <AltIds>  (24) 


>  <pKI>  (24) 
4.71

>  <ChemblID>  (24) 
CHEMBL600003

>  <standardized_canonical_smiles>  (24) 
OC[C@H]1O[C@@H](n2cc(-c3ccc4ccccc4c3)nn2)[C@H](O)[C@@H](O)[C@@H]1O

$$$$
1FS4_CRA_A_998
     RDKit          3D

 19 19  0  0  0  0  0  0  0  0999 V2000
   33.4820   25.1220   28.3450 N   0  0  0  0  0  0  0  0  0  0  0  0
   34.0100   23.1280   26.0280 C   0  0  0  0  0  0  0  0  0  0  0  0
   34.2130   24.4900   25.7520 O   0  0  0  0  0  0  0  0  0  0  0  0
   32.4620   21.1330   25.7830 C   0  0  0  0  0  0  0  0  0  0  0  0
   32.3730   21.0190   27.3700 C   0  0  0  0  0  0  0  0  0  0  0  0
   32.2090   19.6120   27.8500 C   0  0  0  0  0  0  0  0  0  0  0  0
   33.9530   22.8450   27.5740 C   0  0  0  0  0  0  0  0  0  0  0  0
   32.7080   22.6060   25.3180 C   0  0  0  0  0  0  0  0  0  0  0  0
   32.8570   22.6930   23.9000 O   0  0  0  0  0  0  0  0  0  0  0  0
   31.2840   20.6480   25.2210 O   0  0  0  0  0  0  0  0  0  0  0  0
   33.5680   21.4940   27.9730 O   0  0  0  0  0  0  0  0  0  0  0  0
   35.3550   23.0150   27.9210 N   0  0  0  0  0  0  0  0  0  0  0  0
   33.2920   18.8630   27.3540 O   0  0  0  0  0  0  0  0  0  0  0  0
   35.8530   23.3080   29.1170 C   0  0  0  0  0  0  0  0  0  0  0  0
   35.1680   23.5130   30.1180 O   0  0  0  0  0  0  0  0  0  0  0  0
   37.7480   23.3710   30.4770 C   0  0  0  0  0  0  0  0  0  0  0  0
   37.1890   23.4320   29.1220 O   0  0  0  0  0  0  0  0  0  0  0  0
   33.0670   23.8560   28.4160 C   0  0  0  0  0  0  0  0  0  0  0  0
   32.0440   23.5210   29.0380 O   0  0  0  0  0  0  0  0  0  0  0  0
 18  1  1  0
  3  2  1  0
  7  2  1  0
  8  2  1  0
  5  4  1  0
  8  4  1  0
 10  4  1  0
  6  5  1  0
 11  5  1  0
 13  6  1  0
 11  7  1  0
 12  7  1  0
 18  7  1  0
  9  8  1  0
 14 12  1  0
 15 14  2  0
 17 14  1  0
 17 16  1  0
 19 18  2  0
A    1
N1
A    2
C2
A    3
O2
A    4
C4
A    5
C5
A    6
C6
A    7
C1
A    8
C3
A    9
O3
A   10
O4
A   11
O5
A   12
N2
A   13
O6
A   14
C7
A   15
O7
A   16
C8
A   17
O8
A   18
C9
A   19
O9
M  END
>  <Id>  (25) 
1FS4_CRA_A_998

>  <ChainId>  (25) 
A

>  <AsymId>  (25) 
B

>  <SeqNum>  (25) 
998

>  <Name>  (25) 
1-DEOXY-1-METHOXYCARBAMIDO-BETA-D-GLUCO-2-HEPTULOPYRANOSONAMIDE

>  <SystematicName>  (25) 
methyl N-[(2S,3R,4S,5S,6R)-2-aminocarbonyl-3,4,5-trihydroxy-6-(hydroxymethyl)oxan-2-yl]carbamate

>  <Synonyms>  (25) 


>  <Type>  (25) 
D-SACCHARIDE

>  <Formula>  (25) 
C9 H16 N2 O8

>  <ObservedFormula>  (25) 
C9 N2 O8

>  <MolecularWeight>  (25) 
280.232

>  <ModifiedDate>  (25) 
2011-06-04

>  <Parent>  (25) 


>  <OneLetterCode>  (25) 


>  <SubcomponentList>  (25) 


>  <AmbiguousFlag>  (25) 
N

>  <InsertionCode>  (25) 


>  <InstanceId>  (25) 
1FS4_CRA_A_998

>  <ChemCompId>  (25) 
CRA

>  <PdbId>  (25) 
1FS4

>  <ResidueNumber>  (25) 
998

>  <InChI>  (25) 
InChI=1S/C9H16N2O8/c1-18-8(17)11-9(7(10)16)6(15)5(14)4(13)3(2-12)19-9/h3-6,12-15H,2H2,1H3,(H2,10,16)(H,11,17)/t3-,4-,5+,6-,9+/m1/s1

>  <InChIKey>  (25) 
ZQTAMPRAONLFQI-FMTWGGRWSA-N

>  <SMILES>  (25) 
COC(=O)N[C@]1([C@@H]([C@H]([C@@H]([C@H](O1)CO)O)O)O)C(=O)N

>  <MissingHeavyAtoms>  (25) 
0

>  <Model>  (25) 
1

>  <AltIds>  (25) 


>  <pKI>  (25) 
4.8

>  <ChemblID>  (25) 
CHEMBL133097

>  <standardized_canonical_smiles>  (25) 
COC(=O)N[C@]1(C(N)=O)O[C@H](CO)[C@@H](O)[C@H](O)[C@H]1O

$$$$
1B4D_CRA_A_998
     RDKit          3D

 19 19  0  0  0  0  0  0  0  0999 V2000
   33.3630   25.2410   28.1040 N   0  0  0  0  0  0  0  0  0  0  0  0
   33.9560   23.1370   25.8820 C   0  0  0  0  0  0  0  0  0  0  0  0
   34.1310   24.4680   25.5230 O   0  0  0  0  0  0  0  0  0  0  0  0
   32.3710   21.1550   25.6640 C   0  0  0  0  0  0  0  0  0  0  0  0
   32.2940   21.0510   27.2240 C   0  0  0  0  0  0  0  0  0  0  0  0
   32.1090   19.6110   27.6020 C   0  0  0  0  0  0  0  0  0  0  0  0
   33.9520   22.9090   27.4640 C   0  0  0  0  0  0  0  0  0  0  0  0
   32.6680   22.6480   25.2640 C   0  0  0  0  0  0  0  0  0  0  0  0
   32.7830   22.7610   23.8650 O   0  0  0  0  0  0  0  0  0  0  0  0
   31.1550   20.7510   25.0820 O   0  0  0  0  0  0  0  0  0  0  0  0
   33.5270   21.5500   27.8120 O   0  0  0  0  0  0  0  0  0  0  0  0
   35.3250   22.9710   27.9110 N   0  0  0  0  0  0  0  0  0  0  0  0
   33.2170   18.8720   27.1250 O   0  0  0  0  0  0  0  0  0  0  0  0
   35.7640   23.3140   29.1180 C   0  0  0  0  0  0  0  0  0  0  0  0
   35.0150   23.5810   30.0650 O   0  0  0  0  0  0  0  0  0  0  0  0
   37.6990   23.6180   30.5550 C   0  0  0  0  0  0  0  0  0  0  0  0
   37.1620   23.3150   29.2510 O   0  0  0  0  0  0  0  0  0  0  0  0
   33.0630   23.9520   28.2370 C   0  0  0  0  0  0  0  0  0  0  0  0
   31.9930   23.5720   28.7320 O   0  0  0  0  0  0  0  0  0  0  0  0
 18  1  1  0
  3  2  1  0
  7  2  1  0
  8  2  1  0
  5  4  1  0
  8  4  1  0
 10  4  1  0
  6  5  1  0
 11  5  1  0
 13  6  1  0
 11  7  1  0
 12  7  1  0
 18  7  1  0
  9  8  1  0
 14 12  1  0
 15 14  2  0
 17 14  1  0
 17 16  1  0
 19 18  2  0
A    1
N1
A    2
C2
A    3
O2
A    4
C4
A    5
C5
A    6
C6
A    7
C1
A    8
C3
A    9
O3
A   10
O4
A   11
O5
A   12
N2
A   13
O6
A   14
C7
A   15
O7
A   16
C8
A   17
O8
A   18
C9
A   19
O9
M  END
>  <Id>  (26) 
1B4D_CRA_A_998

>  <ChainId>  (26) 
A

>  <AsymId>  (26) 
B

>  <SeqNum>  (26) 
998

>  <Name>  (26) 
1-DEOXY-1-METHOXYCARBAMIDO-BETA-D-GLUCO-2-HEPTULOPYRANOSONAMIDE

>  <SystematicName>  (26) 
methyl N-[(2S,3R,4S,5S,6R)-2-aminocarbonyl-3,4,5-trihydroxy-6-(hydroxymethyl)oxan-2-yl]carbamate

>  <Synonyms>  (26) 


>  <Type>  (26) 
D-SACCHARIDE

>  <Formula>  (26) 
C9 H16 N2 O8

>  <ObservedFormula>  (26) 
C9 N2 O8

>  <MolecularWeight>  (26) 
280.232

>  <ModifiedDate>  (26) 
2011-06-04

>  <Parent>  (26) 


>  <OneLetterCode>  (26) 


>  <SubcomponentList>  (26) 


>  <AmbiguousFlag>  (26) 
N

>  <InsertionCode>  (26) 


>  <InstanceId>  (26) 
1B4D_CRA_A_998

>  <ChemCompId>  (26) 
CRA

>  <PdbId>  (26) 
1B4D

>  <ResidueNumber>  (26) 
998

>  <InChI>  (26) 
InChI=1S/C9H16N2O8/c1-18-8(17)11-9(7(10)16)6(15)5(14)4(13)3(2-12)19-9/h3-6,12-15H,2H2,1H3,(H2,10,16)(H,11,17)/t3-,4-,5+,6-,9+/m1/s1

>  <InChIKey>  (26) 
ZQTAMPRAONLFQI-FMTWGGRWSA-N

>  <SMILES>  (26) 
COC(=O)N[C@]1([C@@H]([C@H]([C@@H]([C@H](O1)CO)O)O)O)C(=O)N

>  <MissingHeavyAtoms>  (26) 
0

>  <Model>  (26) 
1

>  <AltIds>  (26) 


>  <pKI>  (26) 
4.8

>  <ChemblID>  (26) 
CHEMBL133097

>  <standardized_canonical_smiles>  (26) 
COC(=O)N[C@]1(C(N)=O)O[C@H](CO)[C@@H](O)[C@H](O)[C@H]1O

$$$$
9GPB_PLP_D_999
     RDKit          3D

 15 15  0  0  0  0  0  0  0  0999 V2000
   64.5930   46.6140    9.8240 N   0  0  0  0  0  0  0  0  0  0  0  0
   65.4820   47.5410    9.4250 C   0  0  0  0  0  0  0  0  0  0  0  0
   66.9070   47.2140    9.5050 C   0  0  0  0  0  0  0  0  0  0  0  0
   65.0730   48.7410    8.9700 C   0  0  0  0  0  0  0  0  0  0  0  0
   66.0060   49.6410    8.5720 O   0  0  0  0  0  0  0  0  0  0  0  0
   63.7240   49.0350    8.9130 C   0  0  0  0  0  0  0  0  0  0  0  0
   63.2400   50.4070    8.4240 C   0  0  0  0  0  0  0  0  0  0  0  0
   62.7970   48.0630    9.3330 C   0  0  0  0  0  0  0  0  0  0  0  0
   63.2600   46.8700    9.7830 C   0  0  0  0  0  0  0  0  0  0  0  0
   61.2910   48.3040    9.3420 C   0  0  0  0  0  0  0  0  0  0  0  0
   60.5140   47.8660    8.1790 O   0  0  0  0  0  0  0  0  0  0  0  0
   58.8940   48.0080    8.1250 P   0  0  0  0  0  0  0  0  0  0  0  0
   58.5000   48.9040    9.2110 O   0  0  0  0  0  0  0  0  0  0  0  0
   58.5290   48.6140    6.8350 O   0  0  0  0  0  0  0  0  0  0  0  0
   58.4390   46.6150    8.1880 O   0  0  0  0  0  0  0  0  0  0  0  0
  2  1  2  0
  9  1  1  0
  3  2  1  0
  4  2  1  0
  5  4  1  0
  6  4  2  0
  7  6  1  0
  8  6  1  0
  9  8  2  0
 10  8  1  0
 11 10  1  0
 12 11  1  0
 13 12  2  0
 14 12  1  0
 15 12  1  0
A    1
N1
A    2
C2
A    3
C2A
A    4
C3
A    5
O3
A    6
C4
A    7
C4A
A    8
C5
A    9
C6
A   10
C5A
A   11
O4P
A   12
P
A   13
O1P
A   14
O2P
A   15
O3P
M  END
>  <Id>  (27) 
9GPB_PLP_D_999

>  <ChainId>  (27) 
D

>  <AsymId>  (27) 
T

>  <SeqNum>  (27) 
999

>  <Name>  (27) 
PYRIDOXAL-5'-PHOSPHATE

>  <SystematicName>  (27) 
(5-hydroxy-4-methanoyl-6-methyl-pyridin-3-yl)methyl dihydrogen phosphate

>  <Synonyms>  (27) 
VITAMIN B6 Phosphate

>  <Type>  (27) 
NON-POLYMER

>  <Formula>  (27) 
C8 H10 N O6 P

>  <ObservedFormula>  (27) 
P C8 N O5

>  <MolecularWeight>  (27) 
247.142

>  <ModifiedDate>  (27) 
2011-06-04

>  <Parent>  (27) 


>  <OneLetterCode>  (27) 


>  <SubcomponentList>  (27) 


>  <AmbiguousFlag>  (27) 
N

>  <InsertionCode>  (27) 


>  <InstanceId>  (27) 
9GPB_PLP_D_999

>  <ChemCompId>  (27) 
PLP

>  <PdbId>  (27) 
9GPB

>  <ResidueNumber>  (27) 
999

>  <InChI>  (27) 
InChI=1S/C8H10NO6P/c1-5-8(11)7(3-10)6(2-9-5)4-15-16(12,13)14/h2-3,11H,4H2,1H3,(H2,12,13,14)

>  <InChIKey>  (27) 
NGVDGCNFYWLIFO-UHFFFAOYSA-N

>  <MissingHeavyAtoms>  (27) 
1

>  <Model>  (27) 
1

>  <AltIds>  (27) 


>  <pKI>  (27) 
4.73

>  <ChemblID>  (27) 
CHEMBL602684

>  <standardized_canonical_smiles>  (27) 
O=C(CO)N[C@@H]1O[C@H](CO)[C@@H](O)[C@H](O)[C@H]1O

$$$$
9GPB_SO4_D_902
     RDKit          3D

  5  4  0  0  0  0  0  0  0  0999 V2000
   73.8220   63.2090   34.2000 S   0  0  0  0  0  0  0  0  0  0  0  0
   73.1810   63.3440   35.5280 O   0  0  0  0  0  0  0  0  0  0  0  0
   72.7850   63.0980   33.1530 O   0  0  0  0  0  0  0  0  0  0  0  0
   74.6350   61.9570   34.1940 O   0  0  0  0  0  0  0  0  0  0  0  0
   74.6330   64.3870   33.9530 O   0  0  0  0  0  0  0  0  0  0  0  0
  2  1  2  0
  3  1  2  0
  4  1  1  0
  5  1  1  0
M  CHG  2   4  -1   5  -1
A    1
S
A    2
O1
A    3
O2
A    4
O3
A    5
O4
M  END
>  <Id>  (28) 
9GPB_SO4_D_902

>  <ChainId>  (28) 
D

>  <AsymId>  (28) 
S

>  <SeqNum>  (28) 
902

>  <Name>  (28) 
SULFATE ION

>  <SystematicName>  (28) 
sulfate

>  <Synonyms>  (28) 


>  <Type>  (28) 
NON-POLYMER

>  <Formula>  (28) 
O4 S

>  <ObservedFormula>  (28) 
S O4

>  <MolecularWeight>  (28) 
96.063

>  <ModifiedDate>  (28) 
2011-06-04

>  <Parent>  (28) 


>  <OneLetterCode>  (28) 


>  <SubcomponentList>  (28) 


>  <AmbiguousFlag>  (28) 
N

>  <InsertionCode>  (28) 


>  <InstanceId>  (28) 
9GPB_SO4_D_902

>  <ChemCompId>  (28) 
SO4

>  <PdbId>  (28) 
9GPB

>  <ResidueNumber>  (28) 
902

>  <InChI>  (28) 
InChI=1S/H2O4S/c1-5(2,3)4/h(H2,1,2,3,4)/p-2

>  <InChIKey>  (28) 
QAOWNCQODCNURD-UHFFFAOYSA-L

>  <SMILES>  (28) 
[O-]S(=O)(=O)[O-]

>  <MissingHeavyAtoms>  (28) 
0

>  <Model>  (28) 
1

>  <AltIds>  (28) 


>  <pKI>  (28) 
4.73

>  <ChemblID>  (28) 
CHEMBL602684

>  <standardized_canonical_smiles>  (28) 
O=C(CO)N[C@@H]1O[C@H](CO)[C@@H](O)[C@H](O)[C@H]1O

$$$$
3G2J_9GP_A_998
     RDKit          3D

 16 16  0  0  0  0  0  0  0  0999 V2000
   33.7500   24.3170   25.9060 O   0  0  0  0  0  0  0  0  0  0  0  0
   33.5630   22.9150   26.1300 C   0  0  0  0  0  0  0  0  0  0  0  0
   32.3590   22.3710   25.3360 C   0  0  0  0  0  0  0  0  0  0  0  0
   32.6140   22.4670   23.9310 O   0  0  0  0  0  0  0  0  0  0  0  0
   32.1020   20.9050   25.7120 C   0  0  0  0  0  0  0  0  0  0  0  0
   30.9300   20.4570   25.0500 O   0  0  0  0  0  0  0  0  0  0  0  0
   31.9480   20.7380   27.2380 C   0  0  0  0  0  0  0  0  0  0  0  0
   31.7800   19.2650   27.6590 C   0  0  0  0  0  0  0  0  0  0  0  0
   32.8670   18.4820   27.1540 O   0  0  0  0  0  0  0  0  0  0  0  0
   33.1320   21.2190   27.9010 O   0  0  0  0  0  0  0  0  0  0  0  0
   33.4070   22.6320   27.6370 C   0  0  0  0  0  0  0  0  0  0  0  0
   34.6710   23.0320   28.3120 N   0  0  0  0  0  0  0  0  0  0  0  0
   34.6110   23.6210   29.5040 C   0  0  0  0  0  0  0  0  0  0  0  0
   33.5600   23.8510   30.0940 O   0  0  0  0  0  0  0  0  0  0  0  0
   35.9540   24.0120   30.1240 C   0  0  0  0  0  0  0  0  0  0  0  0
   37.0350   23.2770   29.5550 O   0  0  0  0  0  0  0  0  0  0  0  0
  2  1  1  0
  3  2  1  0
 11  2  1  0
  4  3  1  0
  5  3  1  0
  6  5  1  0
  7  5  1  0
  8  7  1  0
 10  7  1  0
  9  8  1  0
 11 10  1  0
 12 11  1  0
 13 12  1  0
 14 13  2  0
 15 13  1  0
 16 15  1  0
A    1
O2
A    2
C2
A    3
C3
A    4
O3
A    5
C4
A    6
O4
A    7
C5
A    8
C6
A    9
O6
A   10
O5
A   11
C1
A   12
N1
A   13
C7
A   14
O7
A   15
C9
A   16
O9
M  END
>  <Id>  (29) 
3G2J_9GP_A_998

>  <ChainId>  (29) 
A

>  <AsymId>  (29) 
B

>  <SeqNum>  (29) 
998

>  <Name>  (29) 
N-(hydroxyacetyl)-beta-D-glucopyranosylamine

>  <SystematicName>  (29) 
2-hydroxy-N-[(2R,3R,4S,5S,6R)-3,4,5-trihydroxy-6-(hydroxymethyl)oxan-2-yl]ethanamide

>  <Synonyms>  (29) 


>  <Type>  (29) 
NON-POLYMER

>  <Formula>  (29) 
C8 H15 N O7

>  <ObservedFormula>  (29) 
C8 N O7

>  <MolecularWeight>  (29) 
237.207

>  <ModifiedDate>  (29) 
2011-06-04

>  <Parent>  (29) 


>  <OneLetterCode>  (29) 


>  <SubcomponentList>  (29) 


>  <AmbiguousFlag>  (29) 
N

>  <InsertionCode>  (29) 


>  <InstanceId>  (29) 
3G2J_9GP_A_998

>  <ChemCompId>  (29) 
9GP

>  <PdbId>  (29) 
3G2J

>  <ResidueNumber>  (29) 
998

>  <InChI>  (29) 
InChI=1S/C8H15NO7/c10-1-3-5(13)6(14)7(15)8(16-3)9-4(12)2-11/h3,5-8,10-11,13-15H,1-2H2,(H,9,12)/t3-,5-,6+,7-,8-/m1/s1

>  <InChIKey>  (29) 
DIGPTJYOVRRBRM-RHROMQPHSA-N

>  <SMILES>  (29) 
C([C@@H]1[C@H]([C@@H]([C@H]([C@@H](O1)NC(=O)CO)O)O)O)O

>  <MissingHeavyAtoms>  (29) 
0

>  <Model>  (29) 
1

>  <AltIds>  (29) 


>  <pKI>  (29) 
4.73

>  <ChemblID>  (29) 
CHEMBL602684

>  <standardized_canonical_smiles>  (29) 
O=C(CO)N[C@@H]1O[C@H](CO)[C@@H](O)[C@H](O)[C@H]1O

$$$$
3L7A_DKY_A_843
     RDKit          3D

 27 29  0  0  0  0  0  0  0  0999 V2000
   33.5050   23.0120   27.8130 C   0  0  0  0  0  0  0  0  0  0  0  0
   34.3980   23.6190   28.8290 N   0  0  0  0  0  0  0  0  0  0  0  0
   33.9080   23.1720   26.3340 C   0  0  0  0  0  0  0  0  0  0  0  0
   34.5880   24.6950   30.9500 N   0  0  0  0  0  0  0  0  0  0  0  0
   34.0050   24.5640   25.9920 O   0  0  0  0  0  0  0  0  0  0  0  0
   32.9000   22.4480   25.4120 C   0  0  0  0  0  0  0  0  0  0  0  0
   33.3890   22.3890   24.1180 F   0  0  0  0  0  0  0  0  0  0  0  0
   36.6040   25.3240   31.8530 N   0  0  0  0  0  0  0  0  0  0  0  0
   32.5580   21.0270   25.9220 C   0  0  0  0  0  0  0  0  0  0  0  0
   31.3810   20.5430   25.2730 O   0  0  0  0  0  0  0  0  0  0  0  0
   32.3660   20.9550   27.4620 C   0  0  0  0  0  0  0  0  0  0  0  0
   33.4620   21.5930   28.1440 O   0  0  0  0  0  0  0  0  0  0  0  0
   32.3180   19.5000   27.9330 C   0  0  0  0  0  0  0  0  0  0  0  0
   33.4380   18.8020   27.3630 O   0  0  0  0  0  0  0  0  0  0  0  0
   35.7990   23.6640   28.6800 C   0  0  0  0  0  0  0  0  0  0  0  0
   36.5680   24.2390   29.6950 C   0  0  0  0  0  0  0  0  0  0  0  0
   35.9280   24.7690   30.8310 C   0  0  0  0  0  0  0  0  0  0  0  0
   33.8120   24.1430   29.9980 C   0  0  0  0  0  0  0  0  0  0  0  0
   32.5890   24.1130   30.1510 O   0  0  0  0  0  0  0  0  0  0  0  0
   37.8590   25.7970   31.7850 C   0  0  0  0  0  0  0  0  0  0  0  0
   38.5480   25.8010   30.7620 O   0  0  0  0  0  0  0  0  0  0  0  0
   38.4210   26.3660   33.1040 C   0  0  0  0  0  0  0  0  0  0  0  0
   39.7850   26.6670   33.2040 C   0  0  0  0  0  0  0  0  0  0  0  0
   40.3190   27.1730   34.3920 C   0  0  0  0  0  0  0  0  0  0  0  0
   39.4770   27.3780   35.4880 C   0  0  0  0  0  0  0  0  0  0  0  0
   38.1190   27.0760   35.3970 C   0  0  0  0  0  0  0  0  0  0  0  0
   37.5930   26.5700   34.2070 C   0  0  0  0  0  0  0  0  0  0  0  0
  2  1  1  0
  3  1  1  0
 12  1  1  0
 15  2  1  0
 18  2  1  0
  5  3  1  0
  6  3  1  0
 17  4  2  0
 18  4  1  0
  7  6  1  0
  9  6  1  0
 17  8  1  0
 20  8  1  0
 10  9  1  0
 11  9  1  0
 12 11  1  0
 13 11  1  0
 14 13  1  0
 16 15  2  0
 17 16  1  0
 19 18  2  0
 21 20  2  0
 22 20  1  0
 23 22  2  0
 27 22  1  0
 24 23  1  0
 25 24  2  0
 26 25  1  0
 27 26  2  0
A    1
C1
A    2
N1
A    3
C2
A    4
N2
A    5
O2
A    6
C3
A    7
F3
A    8
N3
A    9
C4
A   10
O4
A   11
C5
A   12
O5
A   13
C6
A   14
O6
A   15
C7
A   16
C8
A   17
C9
A   18
C10
A   19
O10
A   20
C11
A   21
O11
A   22
C12
A   23
C13
A   24
C14
A   25
C15
A   26
C16
A   27
C17
M  END
>  <Id>  (30) 
3L7A_DKY_A_843

>  <ChainId>  (30) 
A

>  <AsymId>  (30) 
B

>  <SeqNum>  (30) 
843

>  <Name>  (30) 
1-(3-deoxy-3-fluoro-beta-D-glucopyranosyl)-4-[(phenylcarbonyl)amino]pyrimidin-2(1H)-one

>  <SystematicName>  (30) 
N-[1-[(2R,3S,4S,5R,6R)-4-fluoro-3,5-dihydroxy-6-(hydroxymethyl)oxan-2-yl]-2-oxo-pyrimidin-4-yl]benzamide

>  <Synonyms>  (30) 


>  <Type>  (30) 
NON-POLYMER

>  <Formula>  (30) 
C17 H18 F N3 O6

>  <ObservedFormula>  (30) 
C17 F N3 O6

>  <MolecularWeight>  (30) 
379.34

>  <ModifiedDate>  (30) 
2011-06-04

>  <Parent>  (30) 


>  <OneLetterCode>  (30) 


>  <SubcomponentList>  (30) 


>  <AmbiguousFlag>  (30) 
N

>  <InsertionCode>  (30) 


>  <InstanceId>  (30) 
3L7A_DKY_A_843

>  <ChemCompId>  (30) 
DKY

>  <PdbId>  (30) 
3L7A

>  <ResidueNumber>  (30) 
843

>  <InChI>  (30) 
InChI=1S/C17H18FN3O6/c18-12-13(23)10(8-22)27-16(14(12)24)21-7-6-11(20-17(21)26)19-15(25)9-4-2-1-3-5-9/h1-7,10,12-14,16,22-24H,8H2,(H,19,20,25,26)/t10-,12+,13-,14-,16-/m1/s1

>  <InChIKey>  (30) 
PUCZITRLESUWFB-PBEGBBSFSA-N

>  <SMILES>  (30) 
c1ccc(cc1)C(=O)NC2=NC(=O)N(C=C2)[C@H]3[C@@H]([C@H]([C@@H]([C@H](O3)CO)O)F)O

>  <MissingHeavyAtoms>  (30) 
0

>  <Model>  (30) 
1

>  <AltIds>  (30) 


>  <pKI>  (30) 
4.33

>  <ChemblID>  (30) 
CHEMBL1095543

>  <standardized_canonical_smiles>  (30) 
O=C(Nc1ccn([C@@H]2O[C@H](CO)C(O)[C@H](F)C2O)c(=O)n1)c1ccccc1

$$$$
3BCS_CJB_A_998
     RDKit          3D

 19 20  0  0  0  0  0  0  0  0999 V2000
   34.2110   23.6060   28.7830 N   0  0  0  0  0  0  0  0  0  0  0  0
   32.3890   24.2570   29.9950 O   0  0  0  0  0  0  0  0  0  0  0  0
   33.6170   24.2610   29.8630 C   0  0  0  0  0  0  0  0  0  0  0  0
   34.4340   24.9320   30.7800 N   0  0  0  0  0  0  0  0  0  0  0  0
   35.8250   24.9440   30.6240 C   0  0  0  0  0  0  0  0  0  0  0  0
   36.5020   25.5480   31.4480 O   0  0  0  0  0  0  0  0  0  0  0  0
   36.4300   24.2780   29.5560 C   0  0  0  0  0  0  0  0  0  0  0  0
   35.6150   23.6100   28.6380 C   0  0  0  0  0  0  0  0  0  0  0  0
   33.3260   22.9020   27.8180 C   0  0  0  0  0  0  0  0  0  0  0  0
   33.3120   21.4810   28.1060 O   0  0  0  0  0  0  0  0  0  0  0  0
   32.2360   20.8510   27.3610 C   0  0  0  0  0  0  0  0  0  0  0  0
   32.1660   19.3840   27.8020 C   0  0  0  0  0  0  0  0  0  0  0  0
   33.2990   18.6750   27.3010 O   0  0  0  0  0  0  0  0  0  0  0  0
   32.4090   21.0040   25.8270 C   0  0  0  0  0  0  0  0  0  0  0  0
   31.2510   20.4900   25.1550 O   0  0  0  0  0  0  0  0  0  0  0  0
   32.6490   22.4660   25.4170 C   0  0  0  0  0  0  0  0  0  0  0  0
   33.0940   22.5160   24.0620 O   0  0  0  0  0  0  0  0  0  0  0  0
   33.6990   23.1260   26.3350 C   0  0  0  0  0  0  0  0  0  0  0  0
   33.8330   24.5270   26.0520 O   0  0  0  0  0  0  0  0  0  0  0  0
  3  1  1  0
  8  1  1  0
  9  1  1  0
  3  2  2  0
  4  3  1  0
  5  4  1  0
  6  5  2  0
  7  5  1  0
  8  7  2  0
 10  9  1  0
 18  9  1  0
 11 10  1  0
 12 11  1  0
 14 11  1  0
 13 12  1  0
 15 14  1  0
 16 14  1  0
 17 16  1  0
 18 16  1  0
 19 18  1  0
A    1
N1
A    2
O2
A    3
C2
A    4
N3
A    5
C4
A    6
O4
A    7
C5
A    8
C6
A    9
C1'
A   10
O5'
A   11
C5'
A   12
C6'
A   13
O6'
A   14
C4'
A   15
O4'
A   16
C3'
A   17
O3'
A   18
C2'
A   19
O2'
M  END
>  <Id>  (31) 
3BCS_CJB_A_998

>  <ChainId>  (31) 
A

>  <AsymId>  (31) 
B

>  <SeqNum>  (31) 
998

>  <Name>  (31) 
1-beta-D-glucopyranosylpyrimidine-2,4(1H,3H)-dione

>  <SystematicName>  (31) 
1-[(2R,3R,4S,5S,6R)-6-(hydroxymethyl)-3,4,5-tris(oxidanyl)oxan-2-yl]pyrimidine-2,4-dione

>  <Synonyms>  (31) 
1-D-glucopyranosyl-uracil

>  <Type>  (31) 
NON-POLYMER

>  <Formula>  (31) 
C10 H14 N2 O7

>  <ObservedFormula>  (31) 
C10 N2 O7

>  <MolecularWeight>  (31) 
274.227

>  <ModifiedDate>  (31) 
2013-06-20

>  <Parent>  (31) 


>  <OneLetterCode>  (31) 


>  <SubcomponentList>  (31) 


>  <AmbiguousFlag>  (31) 
N

>  <InsertionCode>  (31) 


>  <InstanceId>  (31) 
3BCS_CJB_A_998

>  <ChemCompId>  (31) 
CJB

>  <PdbId>  (31) 
3BCS

>  <ResidueNumber>  (31) 
998

>  <InChI>  (31) 
InChI=1S/C10H14N2O7/c13-3-4-6(15)7(16)8(17)9(19-4)12-2-1-5(14)11-10(12)18/h1-2,4,6-9,13,15-17H,3H2,(H,11,14,18)/t4-,6-,7+,8-,9-/m1/s1

>  <InChIKey>  (31) 
PBGBADORVLQASN-DDIGBBAMSA-N

>  <SMILES>  (31) 
C1=CN(C(=O)NC1=O)[C@H]2[C@@H]([C@H]([C@@H]([C@H](O2)CO)O)O)O

>  <MissingHeavyAtoms>  (31) 
0

>  <Model>  (31) 
1

>  <AltIds>  (31) 


>  <pKI>  (31) 
5.21

>  <ChemblID>  (31) 
CHEMBL1096135

>  <standardized_canonical_smiles>  (31) 
O=c1ccn([C@@H]2O[C@H](CO)[C@@H](O)[C@H](O)[C@H]2O)c(=O)[nH]1

$$$$
3T3D_CJB_A_843
     RDKit          3D

 19 20  0  0  0  0  0  0  0  0999 V2000
   34.2160   23.4570   28.6970 N   0  0  0  0  0  0  0  0  0  0  0  0
   32.4240   24.1830   29.9280 O   0  0  0  0  0  0  0  0  0  0  0  0
   33.6310   24.1580   29.7470 C   0  0  0  0  0  0  0  0  0  0  0  0
   34.4330   24.8720   30.6190 N   0  0  0  0  0  0  0  0  0  0  0  0
   35.8140   24.8820   30.4440 C   0  0  0  0  0  0  0  0  0  0  0  0
   36.4180   25.5650   31.2620 O   0  0  0  0  0  0  0  0  0  0  0  0
   36.4450   24.1850   29.4000 C   0  0  0  0  0  0  0  0  0  0  0  0
   35.6360   23.4910   28.5160 C   0  0  0  0  0  0  0  0  0  0  0  0
   33.3180   22.7340   27.7870 C   0  0  0  0  0  0  0  0  0  0  0  0
   33.2840   21.3050   28.0060 O   0  0  0  0  0  0  0  0  0  0  0  0
   32.1950   20.7060   27.3030 C   0  0  0  0  0  0  0  0  0  0  0  0
   32.2430   19.2710   27.8060 C   0  0  0  0  0  0  0  0  0  0  0  0
   33.2610   18.5140   27.1470 O   0  0  0  0  0  0  0  0  0  0  0  0
   32.4560   20.8860   25.7680 C   0  0  0  0  0  0  0  0  0  0  0  0
   31.4070   20.2670   24.9980 O   0  0  0  0  0  0  0  0  0  0  0  0
   32.6280   22.3660   25.3840 C   0  0  0  0  0  0  0  0  0  0  0  0
   33.0300   22.4610   24.0630 O   0  0  0  0  0  0  0  0  0  0  0  0
   33.7050   23.0060   26.3090 C   0  0  0  0  0  0  0  0  0  0  0  0
   33.8950   24.4130   26.0910 O   0  0  0  0  0  0  0  0  0  0  0  0
  3  1  1  0
  8  1  1  0
  9  1  1  0
  3  2  2  0
  4  3  1  0
  5  4  1  0
  6  5  2  0
  7  5  1  0
  8  7  2  0
 10  9  1  0
 18  9  1  0
 11 10  1  0
 12 11  1  0
 14 11  1  0
 13 12  1  0
 15 14  1  0
 16 14  1  0
 17 16  1  0
 18 16  1  0
 19 18  1  0
A    1
N1
A    2
O2
A    3
C2
A    4
N3
A    5
C4
A    6
O4
A    7
C5
A    8
C6
A    9
C1'
A   10
O5'
A   11
C5'
A   12
C6'
A   13
O6'
A   14
C4'
A   15
O4'
A   16
C3'
A   17
O3'
A   18
C2'
A   19
O2'
M  END
>  <Id>  (32) 
3T3D_CJB_A_843

>  <ChainId>  (32) 
A

>  <AsymId>  (32) 
B

>  <SeqNum>  (32) 
843

>  <Name>  (32) 
1-beta-D-glucopyranosylpyrimidine-2,4(1H,3H)-dione

>  <SystematicName>  (32) 
1-[(2R,3R,4S,5S,6R)-6-(hydroxymethyl)-3,4,5-tris(oxidanyl)oxan-2-yl]pyrimidine-2,4-dione

>  <Synonyms>  (32) 
1-D-glucopyranosyl-uracil

>  <Type>  (32) 
NON-POLYMER

>  <Formula>  (32) 
C10 H14 N2 O7

>  <ObservedFormula>  (32) 
C10 N2 O7

>  <MolecularWeight>  (32) 
274.227

>  <ModifiedDate>  (32) 
2013-06-20

>  <Parent>  (32) 


>  <OneLetterCode>  (32) 


>  <SubcomponentList>  (32) 


>  <AmbiguousFlag>  (32) 
N

>  <InsertionCode>  (32) 


>  <InstanceId>  (32) 
3T3D_CJB_A_843

>  <ChemCompId>  (32) 
CJB

>  <PdbId>  (32) 
3T3D

>  <ResidueNumber>  (32) 
843

>  <InChI>  (32) 
InChI=1S/C10H14N2O7/c13-3-4-6(15)7(16)8(17)9(19-4)12-2-1-5(14)11-10(12)18/h1-2,4,6-9,13,15-17H,3H2,(H,11,14,18)/t4-,6-,7+,8-,9-/m1/s1

>  <InChIKey>  (32) 
PBGBADORVLQASN-DDIGBBAMSA-N

>  <SMILES>  (32) 
C1=CN(C(=O)NC1=O)[C@H]2[C@@H]([C@H]([C@@H]([C@H](O2)CO)O)O)O

>  <MissingHeavyAtoms>  (32) 
0

>  <Model>  (32) 
1

>  <AltIds>  (32) 


>  <pKI>  (32) 
5.21

>  <ChemblID>  (32) 
CHEMBL1096135

>  <standardized_canonical_smiles>  (32) 
O=c1ccn([C@@H]2O[C@H](CO)[C@@H](O)[C@H](O)[C@H]2O)c(=O)[nH]1

$$$$
3BD8_C3B_A_998
     RDKit          3D

 19 20  0  0  0  0  0  0  0  0999 V2000
   33.4550   22.9500   27.8320 C   0  0  0  0  0  0  0  0  0  0  0  0
   33.8310   23.1440   26.3260 C   0  0  0  0  0  0  0  0  0  0  0  0
   33.9840   24.5640   26.0260 O   0  0  0  0  0  0  0  0  0  0  0  0
   32.6960   22.5150   25.4660 C   0  0  0  0  0  0  0  0  0  0  0  0
   32.9920   22.6440   24.0700 O   0  0  0  0  0  0  0  0  0  0  0  0
   32.5780   21.0620   25.8230 C   0  0  0  0  0  0  0  0  0  0  0  0
   31.5330   20.4810   25.0540 O   0  0  0  0  0  0  0  0  0  0  0  0
   32.2840   20.8830   27.3530 C   0  0  0  0  0  0  0  0  0  0  0  0
   33.2910   21.4960   28.2120 O   0  0  0  0  0  0  0  0  0  0  0  0
   32.1820   19.3840   27.8330 C   0  0  0  0  0  0  0  0  0  0  0  0
   33.3230   18.6110   27.2760 O   0  0  0  0  0  0  0  0  0  0  0  0
   34.4270   23.4560   28.8030 N   0  0  0  0  0  0  0  0  0  0  0  0
   33.7860   24.0350   29.8880 C   0  0  0  0  0  0  0  0  0  0  0  0
   32.5040   24.1370   30.0490 O   0  0  0  0  0  0  0  0  0  0  0  0
   34.5980   24.5710   30.9330 N   0  0  0  0  0  0  0  0  0  0  0  0
   35.9350   24.5510   30.9420 C   0  0  0  0  0  0  0  0  0  0  0  0
   36.5990   25.0530   31.9380 N   0  0  0  0  0  0  0  0  0  0  0  0
   36.6760   23.9250   29.7650 C   0  0  0  0  0  0  0  0  0  0  0  0
   35.8840   23.4030   28.7450 C   0  0  0  0  0  0  0  0  0  0  0  0
  2  1  1  0
  9  1  1  0
 12  1  1  0
  3  2  1  0
  4  2  1  0
  5  4  1  0
  6  4  1  0
  7  6  1  0
  8  6  1  0
  9  8  1  0
 10  8  1  0
 11 10  1  0
 13 12  1  0
 19 12  1  0
 14 13  2  0
 15 13  1  0
 16 15  2  0
 17 16  1  0
 18 16  1  0
 19 18  2  0
A    1
C1'
A    2
C2'
A    3
O2'
A    4
C3'
A    5
O3'
A    6
C4'
A    7
O4'
A    8
C5'
A    9
O5'
A   10
C6'
A   11
O6'
A   12
N1
A   13
C2
A   14
O2
A   15
N3
A   16
C4
A   17
N4
A   18
C5
A   19
C6
M  END
>  <Id>  (33) 
3BD8_C3B_A_998

>  <ChainId>  (33) 
A

>  <AsymId>  (33) 
C

>  <SeqNum>  (33) 
998

>  <Name>  (33) 
4-amino-1-beta-D-glucopyranosylpyrimidin-2(1H)-one

>  <SystematicName>  (33) 
4-amino-1-[(2R,3R,4S,5S,6R)-3,4,5-trihydroxy-6-(hydroxymethyl)oxan-2-yl]pyrimidin-2-one

>  <Synonyms>  (33) 
1-D-glucopyranosyl-cytosine

>  <Type>  (33) 
NON-POLYMER

>  <Formula>  (33) 
C10 H15 N3 O6

>  <ObservedFormula>  (33) 
C10 N3 O6

>  <MolecularWeight>  (33) 
273.243

>  <ModifiedDate>  (33) 
2011-06-04

>  <Parent>  (33) 


>  <OneLetterCode>  (33) 


>  <SubcomponentList>  (33) 


>  <AmbiguousFlag>  (33) 
N

>  <InsertionCode>  (33) 


>  <InstanceId>  (33) 
3BD8_C3B_A_998

>  <ChemCompId>  (33) 
C3B

>  <PdbId>  (33) 
3BD8

>  <ResidueNumber>  (33) 
998

>  <InChI>  (33) 
InChI=1S/C10H15N3O6/c11-5-1-2-13(10(18)12-5)9-8(17)7(16)6(15)4(3-14)19-9/h1-2,4,6-9,14-17H,3H2,(H2,11,12,18)/t4-,6-,7+,8-,9-/m1/s1

>  <InChIKey>  (33) 
YYUQXKHCNLFJNF-DDIGBBAMSA-N

>  <SMILES>  (33) 
C1=CN(C(=O)N=C1N)[C@H]2[C@@H]([C@H]([C@@H]([C@H](O2)CO)O)O)O

>  <MissingHeavyAtoms>  (33) 
0

>  <Model>  (33) 
1

>  <AltIds>  (33) 


>  <pKI>  (33) 
5.11

>  <ChemblID>  (33) 
CHEMBL1096136

>  <standardized_canonical_smiles>  (33) 
Nc1ccn([C@@H]2O[C@H](CO)[C@@H](O)[C@H](O)[C@H]2O)c(=O)n1

$$$$
1WW3_NTF_A_998
     RDKit          3D

 18 18  0  0  0  0  0  0  0  0999 V2000
   34.1210   22.8370   27.8250 C   0  0  0  0  0  0  0  0  0  0  0  0
   35.4400   23.1090   28.3760 N   0  0  0  0  0  0  0  0  0  0  0  0
   34.1240   23.1510   26.3110 C   0  0  0  0  0  0  0  0  0  0  0  0
   34.2160   24.5560   26.1130 O   0  0  0  0  0  0  0  0  0  0  0  0
   32.8670   22.6240   25.6030 C   0  0  0  0  0  0  0  0  0  0  0  0
   33.0300   22.7360   24.1950 O   0  0  0  0  0  0  0  0  0  0  0  0
   32.6220   21.1600   25.9680 C   0  0  0  0  0  0  0  0  0  0  0  0
   31.4030   20.7160   25.3920 O   0  0  0  0  0  0  0  0  0  0  0  0
   32.5630   21.0270   27.4900 C   0  0  0  0  0  0  0  0  0  0  0  0
   33.8130   21.4510   28.0610 O   0  0  0  0  0  0  0  0  0  0  0  0
   32.3530   19.5940   27.9330 C   0  0  0  0  0  0  0  0  0  0  0  0
   33.3040   18.7320   27.3180 O   0  0  0  0  0  0  0  0  0  0  0  0
   35.5680   23.6710   29.5740 C   0  0  0  0  0  0  0  0  0  0  0  0
   34.6060   24.0350   30.2520 O   0  0  0  0  0  0  0  0  0  0  0  0
   36.9860   23.8880   30.0890 C   0  0  0  0  0  0  0  0  0  0  0  0
   37.8080   23.1720   29.3840 F   0  0  0  0  0  0  0  0  0  0  0  0
   37.2870   25.1250   29.9930 F   0  0  0  0  0  0  0  0  0  0  0  0
   37.0150   23.4990   31.3330 F   0  0  0  0  0  0  0  0  0  0  0  0
  2  1  1  0
  3  1  1  0
 10  1  1  0
 13  2  1  0
  4  3  1  0
  5  3  1  0
  6  5  1  0
  7  5  1  0
  8  7  1  0
  9  7  1  0
 10  9  1  0
 11  9  1  0
 12 11  1  0
 14 13  2  0
 15 13  1  0
 16 15  1  0
 17 15  1  0
 18 15  1  0
A    1
C1
A    2
N1
A    3
C2
A    4
O2
A    5
C3
A    6
O3
A    7
C4
A    8
O4
A    9
C5
A   10
O5
A   11
C6
A   12
O6
A   13
C7
A   14
O7
A   15
C8
A   16
F1
A   17
F2
A   18
F3
M  END
>  <Id>  (34) 
1WW3_NTF_A_998

>  <ChainId>  (34) 
A

>  <AsymId>  (34) 
B

>  <SeqNum>  (34) 
998

>  <Name>  (34) 
N-TRIFLURO-ACETYL-BETA-D-GLUCOPYRANOSYLAMINE

>  <SystematicName>  (34) 
2,2,2-trifluoro-N-[(2R,3R,4S,5S,6R)-3,4,5-trihydroxy-6-(hydroxymethyl)oxan-2-yl]ethanamide

>  <Synonyms>  (34) 


>  <Type>  (34) 
D-SACCHARIDE

>  <Formula>  (34) 
C8 H12 F3 N O6

>  <ObservedFormula>  (34) 
C8 F3 N O6

>  <MolecularWeight>  (34) 
275.179

>  <ModifiedDate>  (34) 
2011-06-04

>  <Parent>  (34) 


>  <OneLetterCode>  (34) 


>  <SubcomponentList>  (34) 


>  <AmbiguousFlag>  (34) 
N

>  <InsertionCode>  (34) 


>  <InstanceId>  (34) 
1WW3_NTF_A_998

>  <ChemCompId>  (34) 
NTF

>  <PdbId>  (34) 
1WW3

>  <ResidueNumber>  (34) 
998

>  <InChI>  (34) 
InChI=1S/C8H12F3NO6/c9-8(10,11)7(17)12-6-5(16)4(15)3(14)2(1-13)18-6/h2-6,13-16H,1H2,(H,12,17)/t2-,3-,4+,5-,6-/m1/s1

>  <InChIKey>  (34) 
XMUBEPVSEUVEBW-VFUOTHLCSA-N

>  <SMILES>  (34) 
C([C@@H]1[C@H]([C@@H]([C@H]([C@@H](O1)NC(=O)C(F)(F)F)O)O)O)O

>  <MissingHeavyAtoms>  (34) 
0

>  <Model>  (34) 
1

>  <AltIds>  (34) 


>  <pKI>  (34) 
4.11

>  <ChemblID>  (34) 
CHEMBL1234850

>  <standardized_canonical_smiles>  (34) 
O=C(N[C@@H]1O[C@H](CO)[C@@H](O)[C@H](O)[C@H]1O)C(F)(F)F

$$$$
2FFR_DL6_A_998
     RDKit          3D

 18 18  0  0  0  0  0  0  0  0999 V2000
   33.3550   18.6450   27.2580 O   0  0  0  0  0  0  0  0  0  0  0  0
   32.2360   19.3740   27.8180 C   0  0  0  0  0  0  0  0  0  0  0  0
   32.4260   20.8830   27.4810 C   0  0  0  0  0  0  0  0  0  0  0  0
   32.4940   21.0890   25.8730 C   0  0  0  0  0  0  0  0  0  0  0  0
   31.3070   20.6510   25.2170 O   0  0  0  0  0  0  0  0  0  0  0  0
   32.7100   22.6120   25.5530 C   0  0  0  0  0  0  0  0  0  0  0  0
   32.7930   22.8390   24.1240 O   0  0  0  0  0  0  0  0  0  0  0  0
   34.0120   23.0230   26.2350 C   0  0  0  0  0  0  0  0  0  0  0  0
   34.2250   24.4400   26.0000 O   0  0  0  0  0  0  0  0  0  0  0  0
   33.9710   22.7460   27.7560 C   0  0  0  0  0  0  0  0  0  0  0  0
   35.3350   23.0800   28.2340 N   0  0  0  0  0  0  0  0  0  0  0  0
   35.5640   23.7910   29.3260 C   0  0  0  0  0  0  0  0  0  0  0  0
   37.0180   24.0850   29.7240 C   0  0  0  0  0  0  0  0  0  0  0  0
   37.1390   24.8650   30.9190 N   0  0  0  0  0  0  0  0  0  0  0  0
   37.7320   24.4380   31.8390 N   0  0  0  0  0  0  0  0  0  0  0  0
   38.3250   24.0060   32.7550 N   0  0  0  0  0  0  0  0  0  0  0  0
   34.6860   24.2190   30.0130 O   0  0  0  0  0  0  0  0  0  0  0  0
   33.7150   21.3430   28.0150 O   0  0  0  0  0  0  0  0  0  0  0  0
  2  1  1  0
  3  2  1  0
  4  3  1  0
 18  3  1  0
  5  4  1  0
  6  4  1  0
  7  6  1  0
  8  6  1  0
  9  8  1  0
 10  8  1  0
 11 10  1  0
 18 10  1  0
 12 11  1  0
 13 12  1  0
 17 12  2  0
 14 13  1  0
 15 14  2  0
 16 15  2  0
M  CHG  2  15   1  16  -1
A    1
O6
A    2
C6
A    3
C5
A    4
C4
A    5
O4
A    6
C3
A    7
O3
A    8
C2
A    9
O2
A   10
C1
A   11
N1
A   12
C7
A   13
C8
A   14
N2
A   15
N3
A   16
N4
A   17
O7
A   18
O5
M  END
>  <Id>  (35) 
2FFR_DL6_A_998

>  <ChainId>  (35) 
A

>  <AsymId>  (35) 
C

>  <SeqNum>  (35) 
998

>  <Name>  (35) 
2-AZIDO-N-((2R,3R,4S,5S,6R)-3,4,5-TRIHYDROXY-6-(HYDROXYMETHYL)-TETRAHYDRO-2H-PYRAN-2-YL)ACETAMIDE

>  <SystematicName>  (35) 
2-azido-N-[(2R,3R,4S,5S,6R)-3,4,5-trihydroxy-6-(hydroxymethyl)oxan-2-yl]ethanamide

>  <Synonyms>  (35) 
N-AZIDOACETYL-BETA-D-GLUCOPYRANOSYLAMINE

>  <Type>  (35) 
NON-POLYMER

>  <Formula>  (35) 
C8 H14 N4 O6

>  <ObservedFormula>  (35) 
C8 N4 O6

>  <MolecularWeight>  (35) 
262.22

>  <ModifiedDate>  (35) 
2011-06-04

>  <Parent>  (35) 


>  <OneLetterCode>  (35) 


>  <SubcomponentList>  (35) 


>  <AmbiguousFlag>  (35) 
N

>  <InsertionCode>  (35) 


>  <InstanceId>  (35) 
2FFR_DL6_A_998

>  <ChemCompId>  (35) 
DL6

>  <PdbId>  (35) 
2FFR

>  <ResidueNumber>  (35) 
998

>  <InChI>  (35) 
InChI=1S/C8H14N4O6/c9-12-10-1-4(14)11-8-7(17)6(16)5(15)3(2-13)18-8/h3,5-8,13,15-17H,1-2H2,(H,11,14)/t3-,5-,6+,7-,8-/m1/s1

>  <InChIKey>  (35) 
ACLUEOOMMLAETN-RHROMQPHSA-N

>  <SMILES>  (35) 
C([C@@H]1[C@H]([C@@H]([C@H]([C@@H](O1)NC(=O)CN=[N+]=[N-])O)O)O)O

>  <MissingHeavyAtoms>  (35) 
0

>  <Model>  (35) 
1

>  <AltIds>  (35) 


>  <pKI>  (35) 
4.31

>  <ChemblID>  (35) 
CHEMBL1232255

>  <standardized_canonical_smiles>  (35) 
N#[N+][N-]CC(=O)N[C@@H]1O[C@H](CO)[C@@H](O)[C@H](O)[C@H]1O

$$$$
2QLN_F59_A_998
     RDKit          3D

 29 31  0  0  0  0  0  0  0  0999 V2000
   39.6340   26.5090   35.8000 C   0  0  0  0  0  0  0  0  0  0  0  0
   40.5880   26.9130   36.7400 C   0  0  0  0  0  0  0  0  0  0  0  0
   40.2200   27.7400   37.8020 C   0  0  0  0  0  0  0  0  0  0  0  0
   38.8970   28.1630   37.9280 C   0  0  0  0  0  0  0  0  0  0  0  0
   37.9450   27.7610   36.9920 C   0  0  0  0  0  0  0  0  0  0  0  0
   38.3060   26.9390   35.9150 C   0  0  0  0  0  0  0  0  0  0  0  0
   37.3350   26.5360   34.9860 C   0  0  0  0  0  0  0  0  0  0  0  0
   36.0480   26.2420   35.4390 C   0  0  0  0  0  0  0  0  0  0  0  0
   35.0560   25.8360   34.5400 C   0  0  0  0  0  0  0  0  0  0  0  0
   37.6190   26.4110   33.6170 C   0  0  0  0  0  0  0  0  0  0  0  0
   36.6190   26.0020   32.7180 C   0  0  0  0  0  0  0  0  0  0  0  0
   35.3270   25.7110   33.1770 C   0  0  0  0  0  0  0  0  0  0  0  0
   34.1730   25.2500   32.2500 C   0  0  0  0  0  0  0  0  0  0  0  0
   33.0050   25.4600   32.5830 O   0  0  0  0  0  0  0  0  0  0  0  0
   34.5300   24.6130   31.1210 N   0  0  0  0  0  0  0  0  0  0  0  0
   33.6470   24.1340   30.2190 C   0  0  0  0  0  0  0  0  0  0  0  0
   32.4250   24.2340   30.3620 O   0  0  0  0  0  0  0  0  0  0  0  0
   34.1600   23.5340   29.1390 N   0  0  0  0  0  0  0  0  0  0  0  0
   33.2480   22.9700   28.1060 C   0  0  0  0  0  0  0  0  0  0  0  0
   33.1620   21.5350   28.3350 O   0  0  0  0  0  0  0  0  0  0  0  0
   32.1390   20.9050   27.5490 C   0  0  0  0  0  0  0  0  0  0  0  0
   32.0640   19.4350   27.9830 C   0  0  0  0  0  0  0  0  0  0  0  0
   33.1480   18.6860   27.4220 O   0  0  0  0  0  0  0  0  0  0  0  0
   32.3980   21.1140   26.0370 C   0  0  0  0  0  0  0  0  0  0  0  0
   31.2710   20.6590   25.3090 O   0  0  0  0  0  0  0  0  0  0  0  0
   32.6360   22.5990   25.7070 C   0  0  0  0  0  0  0  0  0  0  0  0
   33.0470   22.7210   24.3470 O   0  0  0  0  0  0  0  0  0  0  0  0
   33.6930   23.2070   26.6550 C   0  0  0  0  0  0  0  0  0  0  0  0
   33.8820   24.6080   26.4120 O   0  0  0  0  0  0  0  0  0  0  0  0
  2  1  2  0
  6  1  1  0
  3  2  1  0
  4  3  2  0
  5  4  1  0
  6  5  2  0
  7  6  1  0
  8  7  2  0
 10  7  1  0
  9  8  1  0
 12  9  2  0
 11 10  2  0
 12 11  1  0
 13 12  1  0
 14 13  2  0
 15 13  1  0
 16 15  1  0
 17 16  2  0
 18 16  1  0
 19 18  1  0
 20 19  1  0
 28 19  1  0
 21 20  1  0
 22 21  1  0
 24 21  1  0
 23 22  1  0
 25 24  1  0
 26 24  1  0
 27 26  1  0
 28 26  1  0
 29 28  1  0
A    1
C16
A    2
C17
A    3
C18
A    4
C19
A    5
C20
A    6
C15
A    7
C12
A    8
C13
A    9
C14
A   10
C11
A   11
C10
A   12
C9
A   13
C8
A   14
O8
A   15
N2
A   16
C7
A   17
O7
A   18
N1
A   19
C1
A   20
O5
A   21
C5
A   22
C6
A   23
O6
A   24
C4
A   25
O4
A   26
C3
A   27
O3
A   28
C2
A   29
O2
M  END
>  <Id>  (36) 
2QLN_F59_A_998

>  <ChainId>  (36) 
A

>  <AsymId>  (36) 
B

>  <SeqNum>  (36) 
998

>  <Name>  (36) 
N-[(biphenyl-4-ylcarbonyl)carbamoyl]-beta-D-glucopyranosylamine

>  <SystematicName>  (36) 
4-phenyl-N-[[(2R,3R,4S,5S,6R)-3,4,5-trihydroxy-6-(hydroxymethyl)oxan-2-yl]carbamoyl]benzamide

>  <Synonyms>  (36) 


>  <Type>  (36) 
NON-POLYMER

>  <Formula>  (36) 
C20 H22 N2 O7

>  <ObservedFormula>  (36) 
C20 N2 O7

>  <MolecularWeight>  (36) 
402.398

>  <ModifiedDate>  (36) 
2011-06-04

>  <Parent>  (36) 


>  <OneLetterCode>  (36) 


>  <SubcomponentList>  (36) 


>  <AmbiguousFlag>  (36) 
N

>  <InsertionCode>  (36) 


>  <InstanceId>  (36) 
2QLN_F59_A_998

>  <ChemCompId>  (36) 
F59

>  <PdbId>  (36) 
2QLN

>  <ResidueNumber>  (36) 
998

>  <InChI>  (36) 
InChI=1S/C20H22N2O7/c23-10-14-15(24)16(25)17(26)19(29-14)22-20(28)21-18(27)13-8-6-12(7-9-13)11-4-2-1-3-5-11/h1-9,14-17,19,23-26H,10H2,(H2,21,22,27,28)/t14-,15-,16+,17-,19-/m1/s1

>  <InChIKey>  (36) 
ZINVIKWRSBKXJV-OGJJZOIMSA-N

>  <SMILES>  (36) 
c1ccc(cc1)c2ccc(cc2)C(=O)NC(=O)N[C@H]3[C@@H]([C@H]([C@@H]([C@H](O3)CO)O)O)O

>  <MissingHeavyAtoms>  (36) 
0

>  <Model>  (36) 
1

>  <AltIds>  (36) 


>  <pKI>  (36) 
5.43

>  <ChemblID>  (36) 
CHEMBL1232637

>  <standardized_canonical_smiles>  (36) 
O=C(NC(=O)c1ccc(-c2ccccc2)cc1)N[C@@H]1O[C@H](CO)[C@@H](O)[C@H](O)[C@H]1O

$$$$
2QN3_F55_A_998
     RDKit          3D

 24 25  0  0  0  0  0  0  0  0999 V2000
   35.8240   25.8530   34.2070 C   0  0  0  0  0  0  0  0  0  0  0  0
   36.9520   26.3210   34.8820 C   0  0  0  0  0  0  0  0  0  0  0  0
   38.0560   26.7640   34.1530 C   0  0  0  0  0  0  0  0  0  0  0  0
   39.4610   27.3440   34.9890 Cl  0  0  0  0  0  0  0  0  0  0  0  0
   38.0370   26.7420   32.7590 C   0  0  0  0  0  0  0  0  0  0  0  0
   36.9070   26.2750   32.0830 C   0  0  0  0  0  0  0  0  0  0  0  0
   35.8000   25.8280   32.8100 C   0  0  0  0  0  0  0  0  0  0  0  0
   34.5490   25.3040   32.0840 C   0  0  0  0  0  0  0  0  0  0  0  0
   33.4320   25.4690   32.5800 O   0  0  0  0  0  0  0  0  0  0  0  0
   34.7960   24.6790   30.9190 N   0  0  0  0  0  0  0  0  0  0  0  0
   33.8620   24.1360   30.1190 C   0  0  0  0  0  0  0  0  0  0  0  0
   32.6550   24.1650   30.3840 O   0  0  0  0  0  0  0  0  0  0  0  0
   34.3180   23.5620   29.0000 N   0  0  0  0  0  0  0  0  0  0  0  0
   33.3870   22.9280   28.0250 C   0  0  0  0  0  0  0  0  0  0  0  0
   33.3520   21.5000   28.2530 O   0  0  0  0  0  0  0  0  0  0  0  0
   32.2800   20.8800   27.4940 C   0  0  0  0  0  0  0  0  0  0  0  0
   32.2130   19.4090   27.9320 C   0  0  0  0  0  0  0  0  0  0  0  0
   33.2950   18.6770   27.3460 O   0  0  0  0  0  0  0  0  0  0  0  0
   32.4990   21.0580   25.9720 C   0  0  0  0  0  0  0  0  0  0  0  0
   31.3390   20.6100   25.2600 O   0  0  0  0  0  0  0  0  0  0  0  0
   32.7960   22.5260   25.5980 C   0  0  0  0  0  0  0  0  0  0  0  0
   33.2980   22.5760   24.2570 O   0  0  0  0  0  0  0  0  0  0  0  0
   33.8170   23.1610   26.5650 C   0  0  0  0  0  0  0  0  0  0  0  0
   33.9640   24.5610   26.2990 O   0  0  0  0  0  0  0  0  0  0  0  0
  2  1  2  0
  7  1  1  0
  3  2  1  0
  4  3  1  0
  5  3  2  0
  6  5  1  0
  7  6  2  0
  8  7  1  0
  9  8  2  0
 10  8  1  0
 11 10  1  0
 12 11  2  0
 13 11  1  0
 14 13  1  0
 15 14  1  0
 23 14  1  0
 16 15  1  0
 17 16  1  0
 19 16  1  0
 18 17  1  0
 20 19  1  0
 21 19  1  0
 22 21  1  0
 23 21  1  0
 24 23  1  0
A    1
C14
A    2
C13
A    3
C12
A    4
CL1
A    5
C11
A    6
C10
A    7
C9
A    8
C8
A    9
O8
A   10
N2
A   11
C7
A   12
O7
A   13
N1
A   14
C1
A   15
O5
A   16
C5
A   17
C6
A   18
O6
A   19
C4
A   20
O4
A   21
C3
A   22
O3
A   23
C2
A   24
O2
M  END
>  <Id>  (37) 
2QN3_F55_A_998

>  <ChainId>  (37) 
A

>  <AsymId>  (37) 
B

>  <SeqNum>  (37) 
998

>  <Name>  (37) 
N-{[(4-chlorophenyl)carbonyl]carbamoyl}-beta-D-glucopyranosylamine

>  <SystematicName>  (37) 
4-chloro-N-[[(2R,3R,4S,5S,6R)-3,4,5-trihydroxy-6-(hydroxymethyl)oxan-2-yl]carbamoyl]benzamide

>  <Synonyms>  (37) 


>  <Type>  (37) 
NON-POLYMER

>  <Formula>  (37) 
C14 H17 Cl N2 O7

>  <ObservedFormula>  (37) 
C14 Cl N2 O7

>  <MolecularWeight>  (37) 
360.747

>  <ModifiedDate>  (37) 
2011-06-04

>  <Parent>  (37) 


>  <OneLetterCode>  (37) 


>  <SubcomponentList>  (37) 


>  <AmbiguousFlag>  (37) 
N

>  <InsertionCode>  (37) 


>  <InstanceId>  (37) 
2QN3_F55_A_998

>  <ChemCompId>  (37) 
F55

>  <PdbId>  (37) 
2QN3

>  <ResidueNumber>  (37) 
998

>  <InChI>  (37) 
InChI=1S/C14H17ClN2O7/c15-7-3-1-6(2-4-7)12(22)16-14(23)17-13-11(21)10(20)9(19)8(5-18)24-13/h1-4,8-11,13,18-21H,5H2,(H2,16,17,22,23)/t8-,9-,10+,11-,13-/m1/s1

>  <InChIKey>  (37) 
YTUMHTAWGXUOIS-BZNQNGANSA-N

>  <SMILES>  (37) 
c1cc(ccc1C(=O)NC(=O)N[C@H]2[C@@H]([C@H]([C@@H]([C@H](O2)CO)O)O)O)Cl

>  <MissingHeavyAtoms>  (37) 
0

>  <Model>  (37) 
1

>  <AltIds>  (37) 


>  <pKI>  (37) 
5.36

>  <ChemblID>  (37) 
CHEMBL1232636

>  <standardized_canonical_smiles>  (37) 
O=C(NC(=O)c1ccc(Cl)cc1)N[C@@H]1O[C@H](CO)[C@@H](O)[C@H](O)[C@H]1O

$$$$
3ZCV_N85_A_998
     RDKit          3D

 26 28  0  0  0  0  0  0  0  0999 V2000
   34.1740   23.5960   29.0320 N   0  0  0  0  0  0  0  0  0  0  0  0
   33.7430   24.0890   30.1970 C   0  0  0  0  0  0  0  0  0  0  0  0
   32.5480   24.0620   30.5040 O   0  0  0  0  0  0  0  0  0  0  0  0
   34.6820   24.6100   31.0060 N   0  0  0  0  0  0  0  0  0  0  0  0
   34.4220   25.1370   32.2180 C   0  0  0  0  0  0  0  0  0  0  0  0
   33.3090   25.2220   32.7390 O   0  0  0  0  0  0  0  0  0  0  0  0
   35.6420   25.6780   32.9670 C   0  0  0  0  0  0  0  0  0  0  0  0
   35.5950   26.2910   34.3510 C   0  0  0  0  0  0  0  0  0  0  0  0
   37.0690   26.5900   34.5520 C   0  0  0  0  0  0  0  0  0  0  0  0
   37.7720   27.1450   35.6220 C   0  0  0  0  0  0  0  0  0  0  0  0
   33.2320   22.9760   28.0610 C   0  0  0  0  0  0  0  0  0  0  0  0
   39.1500   27.3200   35.5350 C   0  0  0  0  0  0  0  0  0  0  0  0
   39.8280   26.9350   34.3820 C   0  0  0  0  0  0  0  0  0  0  0  0
   39.1220   26.3800   33.3120 C   0  0  0  0  0  0  0  0  0  0  0  0
   37.7400   26.2030   33.3870 C   0  0  0  0  0  0  0  0  0  0  0  0
   33.6540   23.1980   26.6050 C   0  0  0  0  0  0  0  0  0  0  0  0
   33.7970   24.6000   26.3520 O   0  0  0  0  0  0  0  0  0  0  0  0
   32.6240   22.5550   25.6530 C   0  0  0  0  0  0  0  0  0  0  0  0
   33.0740   22.6350   24.3020 O   0  0  0  0  0  0  0  0  0  0  0  0
   36.8850   25.6850   32.4920 N   0  0  0  0  0  0  0  0  0  0  0  0
   32.3700   21.0760   26.0120 C   0  0  0  0  0  0  0  0  0  0  0  0
   31.2250   20.5880   25.2950 O   0  0  0  0  0  0  0  0  0  0  0  0
   32.1590   20.8860   27.5320 C   0  0  0  0  0  0  0  0  0  0  0  0
   33.2120   21.5400   28.2910 O   0  0  0  0  0  0  0  0  0  0  0  0
   32.1160   19.4040   27.9620 C   0  0  0  0  0  0  0  0  0  0  0  0
   33.1820   18.6810   27.3280 O   0  0  0  0  0  0  0  0  0  0  0  0
  2  1  1  0
 11  1  1  0
  3  2  2  0
  4  2  1  0
  5  4  1  0
  6  5  2  0
  7  5  1  0
  8  7  2  0
 20  7  1  0
  9  8  1  0
 10  9  2  0
 15  9  1  0
 12 10  1  0
 16 11  1  0
 24 11  1  0
 13 12  2  0
 14 13  1  0
 15 14  2  0
 20 15  1  0
 17 16  1  0
 18 16  1  0
 19 18  1  0
 21 18  1  0
 22 21  1  0
 23 21  1  0
 24 23  1  0
 25 23  1  0
 26 25  1  0
A    1
N1
A    2
C2
A    3
O2
A    4
N3
A    5
C4
A    6
O4
A    7
C5
A    8
C7
A    9
C8
A   10
C9
A   11
C1'
A   12
C10
A   13
C11
A   14
C12
A   15
C16
A   16
C2'
A   17
O2'
A   18
C3'
A   19
O3'
A   20
N30
A   21
C4'
A   22
O4'
A   23
C5'
A   24
O5'
A   25
C6'
A   26
O6'
M  END
>  <Id>  (38) 
3ZCV_N85_A_998

>  <ChainId>  (38) 
A

>  <AsymId>  (38) 
C

>  <SeqNum>  (38) 
998

>  <Name>  (38) 
N-[(1H-indol-2-ylcarbonyl)carbamoyl]-beta-D-glucopyranosylamine

>  <SystematicName>  (38) 
N-[[(2R,3R,4S,5S,6R)-6-(hydroxymethyl)-3,4,5-tris(oxidanyl)oxan-2-yl]carbamoyl]-1H-indole-2-carboxamide

>  <Synonyms>  (38) 


>  <Type>  (38) 
NON-POLYMER

>  <Formula>  (38) 
C16 H19 N3 O7

>  <ObservedFormula>  (38) 
C16 N3 O7

>  <MolecularWeight>  (38) 
365.338

>  <ModifiedDate>  (38) 
2014-09-05

>  <Parent>  (38) 


>  <OneLetterCode>  (38) 


>  <SubcomponentList>  (38) 


>  <AmbiguousFlag>  (38) 
N

>  <InsertionCode>  (38) 


>  <InstanceId>  (38) 
3ZCV_N85_A_998

>  <ChemCompId>  (38) 
N85

>  <PdbId>  (38) 
3ZCV

>  <ResidueNumber>  (38) 
998

>  <InChI>  (38) 
InChI=1S/C16H19N3O7/c20-6-10-11(21)12(22)13(23)15(26-10)19-16(25)18-14(24)9-5-7-3-1-2-4-8(7)17-9/h1-5,10-13,15,17,20-23H,6H2,(H2,18,19,24,25)/t10-,11-,12+,13-,15-/m1/s1

>  <InChIKey>  (38) 
KAFZFGVMCHNQST-ZHZXCYKASA-N

>  <SMILES>  (38) 
c1ccc2c(c1)cc([nH]2)C(=O)NC(=O)N[C@H]3[C@@H]([C@H]([C@@H]([C@H](O3)CO)O)O)O

>  <MissingHeavyAtoms>  (38) 
0

>  <Model>  (38) 
1

>  <AltIds>  (38) 


>  <pKI>  (38) 
5.4

>  <ChemblID>  (38) 
CHEMBL2030479

>  <standardized_canonical_smiles>  (38) 
O=C(NC(=O)c1cc2ccccc2[nH]1)N[C@@H]1O[C@H](CO)[C@@H](O)[C@H](O)[C@H]1O

$$$$
4EL5_D1M_A_901
     RDKit          3D

 21 22  0  0  0  0  0  0  0  0999 V2000
   34.0970   23.5080   28.8070 N   0  0  0  0  0  0  0  0  0  0  0  0
   33.4940   24.3630   29.7650 C   0  0  0  0  0  0  0  0  0  0  0  0
   32.2810   24.5700   29.7880 O   0  0  0  0  0  0  0  0  0  0  0  0
   34.3190   25.0370   30.6860 N   0  0  0  0  0  0  0  0  0  0  0  0
   35.6730   24.8070   30.7000 C   0  0  0  0  0  0  0  0  0  0  0  0
   36.3040   25.4480   31.5220 O   0  0  0  0  0  0  0  0  0  0  0  0
   36.2930   23.9010   29.8070 C   0  0  0  0  0  0  0  0  0  0  0  0
   35.5090   23.2790   28.8380 C   0  0  0  0  0  0  0  0  0  0  0  0
   37.7090   23.6930   29.9160 C   0  0  0  0  0  0  0  0  0  0  0  0
   38.8770   23.5610   30.0590 C   0  0  0  0  0  0  0  0  0  0  0  0
   33.2130   22.8510   27.8510 C   0  0  0  0  0  0  0  0  0  0  0  0
   33.6980   23.1810   26.3430 C   0  0  0  0  0  0  0  0  0  0  0  0
   33.8760   24.5750   26.1550 O   0  0  0  0  0  0  0  0  0  0  0  0
   32.6530   22.5760   25.4220 C   0  0  0  0  0  0  0  0  0  0  0  0
   33.0970   22.6460   24.0540 O   0  0  0  0  0  0  0  0  0  0  0  0
   32.4640   21.0920   25.8560 C   0  0  0  0  0  0  0  0  0  0  0  0
   31.3330   20.5960   25.1590 O   0  0  0  0  0  0  0  0  0  0  0  0
   32.2310   20.8620   27.4180 C   0  0  0  0  0  0  0  0  0  0  0  0
   33.2810   21.4310   28.1410 O   0  0  0  0  0  0  0  0  0  0  0  0
   32.1090   19.2830   27.7460 C   0  0  0  0  0  0  0  0  0  0  0  0
   33.3190   18.6990   27.2360 O   0  0  0  0  0  0  0  0  0  0  0  0
  2  1  1  0
  8  1  1  0
 11  1  1  0
  3  2  2  0
  4  2  1  0
  5  4  1  0
  6  5  2  0
  7  5  1  0
  8  7  2  0
  9  7  1  0
 10  9  3  0
 12 11  1  0
 19 11  1  0
 13 12  1  0
 14 12  1  0
 15 14  1  0
 16 14  1  0
 17 16  1  0
 18 16  1  0
 19 18  1  0
 20 18  1  0
 21 20  1  0
A    1
N1
A    2
C2
A    3
O2
A    4
N3
A    5
C4
A    6
O4
A    7
C5
A    8
C6
A    9
C7
A   10
C8
A   11
C1'
A   12
C2'
A   13
O2'
A   14
C3'
A   15
O3'
A   16
C4'
A   17
O4'
A   18
C5'
A   19
O5'
A   20
C6'
A   21
O6'
M  END
>  <Id>  (39) 
4EL5_D1M_A_901

>  <ChainId>  (39) 
A

>  <AsymId>  (39) 
B

>  <SeqNum>  (39) 
901

>  <Name>  (39) 
5-ethynyl-1-(beta-D-glucopyranosyl)pyrimidine-2,4(1H,3H)-dione

>  <SystematicName>  (39) 
5-ethynyl-1-[(2R,3R,4S,5S,6R)-6-(hydroxymethyl)-3,4,5-tris(oxidanyl)oxan-2-yl]pyrimidine-2,4-dione

>  <Synonyms>  (39) 


>  <Type>  (39) 
NON-POLYMER

>  <Formula>  (39) 
C12 H14 N2 O7

>  <ObservedFormula>  (39) 
C12 N2 O7

>  <MolecularWeight>  (39) 
298.249

>  <ModifiedDate>  (39) 
2012-07-20

>  <Parent>  (39) 


>  <OneLetterCode>  (39) 


>  <SubcomponentList>  (39) 


>  <AmbiguousFlag>  (39) 
N

>  <InsertionCode>  (39) 


>  <InstanceId>  (39) 
4EL5_D1M_A_901

>  <ChemCompId>  (39) 
D1M

>  <PdbId>  (39) 
4EL5

>  <ResidueNumber>  (39) 
901

>  <InChI>  (39) 
InChI=1S/C12H14N2O7/c1-2-5-3-14(12(20)13-10(5)19)11-9(18)8(17)7(16)6(4-15)21-11/h1,3,6-9,11,15-18H,4H2,(H,13,19,20)/t6-,7-,8+,9-,11-/m1/s1

>  <InChIKey>  (39) 
DSYJZEAWLKMMLW-ZBGLXGBJSA-N

>  <SMILES>  (39) 
C#CC1=CN(C(=O)NC1=O)[C@H]2[C@@H]([C@H]([C@@H]([C@H](O2)CO)O)O)O

>  <MissingHeavyAtoms>  (39) 
0

>  <Model>  (39) 
1

>  <AltIds>  (39) 


>  <pKI>  (39) 
5.33

>  <ChemblID>  (39) 
CHEMBL2041078

>  <standardized_canonical_smiles>  (39) 
C#Cc1cn([C@@H]2O[C@H](CO)[C@@H](O)[C@H](O)[C@H]2O)c(=O)[nH]c1=O

$$$$
4EL0_D1K_A_901
     RDKit          3D

 24 26  0  0  0  0  0  0  0  0999 V2000
   34.1150   23.5090   28.8320 N   0  0  0  0  0  0  0  0  0  0  0  0
   33.4930   24.1610   29.8630 C   0  0  0  0  0  0  0  0  0  0  0  0
   32.2660   24.2820   29.9480 O   0  0  0  0  0  0  0  0  0  0  0  0
   34.2580   24.7410   30.8480 N   0  0  0  0  0  0  0  0  0  0  0  0
   35.5710   24.2100   30.9890 C   0  0  0  0  0  0  0  0  0  0  0  0
   36.2260   23.8810   29.7780 C   0  0  0  0  0  0  0  0  0  0  0  0
   36.3880   25.1840   31.5140 O   0  0  0  0  0  0  0  0  0  0  0  0
   35.5310   23.3600   28.7730 C   0  0  0  0  0  0  0  0  0  0  0  0
   37.5340   23.9080   30.0980 C   0  0  0  0  0  0  0  0  0  0  0  0
   37.5890   24.5380   31.2840 C   0  0  0  0  0  0  0  0  0  0  0  0
   38.9010   24.8720   31.9550 C   0  0  0  0  0  0  0  0  0  0  0  0
   33.2510   22.9110   27.7980 C   0  0  0  0  0  0  0  0  0  0  0  0
   39.5960   23.6930   32.6340 C   0  0  0  0  0  0  0  0  0  0  0  0
   41.0530   24.1780   32.9320 C   0  0  0  0  0  0  0  0  0  0  0  0
   33.7420   23.1320   26.3880 C   0  0  0  0  0  0  0  0  0  0  0  0
   34.0300   24.5130   26.1740 O   0  0  0  0  0  0  0  0  0  0  0  0
   32.6530   22.5410   25.4430 C   0  0  0  0  0  0  0  0  0  0  0  0
   33.0610   22.6080   24.1280 O   0  0  0  0  0  0  0  0  0  0  0  0
   32.3800   21.0800   25.8260 C   0  0  0  0  0  0  0  0  0  0  0  0
   31.2260   20.6490   25.0680 O   0  0  0  0  0  0  0  0  0  0  0  0
   32.1410   20.9210   27.4000 C   0  0  0  0  0  0  0  0  0  0  0  0
   33.2190   21.4700   28.1290 O   0  0  0  0  0  0  0  0  0  0  0  0
   32.1570   19.4740   27.8990 C   0  0  0  0  0  0  0  0  0  0  0  0
   33.1850   18.6820   27.2410 O   0  0  0  0  0  0  0  0  0  0  0  0
  2  1  1  0
  8  1  1  0
 12  1  1  0
  3  2  2  0
  4  2  1  0
  5  4  2  0
  6  5  1  0
  7  5  1  0
  8  6  2  0
  9  6  1  0
 10  7  1  0
 10  9  2  0
 11 10  1  0
 13 11  1  0
 15 12  1  0
 22 12  1  0
 14 13  1  0
 16 15  1  0
 17 15  1  0
 18 17  1  0
 19 17  1  0
 20 19  1  0
 21 19  1  0
 22 21  1  0
 23 21  1  0
 24 23  1  0
A    1
N1
A    2
C2
A    3
O2
A    4
N3
A    5
C4
A    6
C5
A    7
O5
A    8
C6
A    9
C7
A   10
C8
A   11
C9
A   12
C1'
A   13
C10
A   14
C11
A   15
C2'
A   16
O2'
A   17
C3'
A   18
O3'
A   19
C4'
A   20
O4'
A   21
C5'
A   22
O5'
A   23
C6'
A   24
O6'
M  END
>  <Id>  (40) 
4EL0_D1K_A_901

>  <ChainId>  (40) 
A

>  <AsymId>  (40) 
B

>  <SeqNum>  (40) 
901

>  <Name>  (40) 
3-(beta-D-glucopyranosyl)-6-propylfuro[2,3-d]pyrimidin-2(3H)-one

>  <SystematicName>  (40) 
3-[(2R,3R,4S,5S,6R)-6-(hydroxymethyl)-3,4,5-tris(oxidanyl)oxan-2-yl]-6-propyl-furo[2,3-d]pyrimidin-2-one

>  <Synonyms>  (40) 


>  <Type>  (40) 
NON-POLYMER

>  <Formula>  (40) 
C15 H20 N2 O7

>  <ObservedFormula>  (40) 
C15 N2 O7

>  <MolecularWeight>  (40) 
340.329

>  <ModifiedDate>  (40) 
2012-07-20

>  <Parent>  (40) 


>  <OneLetterCode>  (40) 


>  <SubcomponentList>  (40) 


>  <AmbiguousFlag>  (40) 
N

>  <InsertionCode>  (40) 


>  <InstanceId>  (40) 
4EL0_D1K_A_901

>  <ChemCompId>  (40) 
D1K

>  <PdbId>  (40) 
4EL0

>  <ResidueNumber>  (40) 
901

>  <InChI>  (40) 
InChI=1S/C15H20N2O7/c1-2-3-8-4-7-5-17(15(22)16-13(7)23-8)14-12(21)11(20)10(19)9(6-18)24-14/h4-5,9-12,14,18-21H,2-3,6H2,1H3/t9-,10-,11+,12-,14-/m1/s1

>  <InChIKey>  (40) 
XKVQKUGUMPARLW-YGEZULPYSA-N

>  <SMILES>  (40) 
CCCC1=CC2=CN(C(=O)N=C2O1)[C@H]3[C@@H]([C@H]([C@@H]([C@H](O3)CO)O)O)O

>  <MissingHeavyAtoms>  (40) 
0

>  <Model>  (40) 
1

>  <AltIds>  (40) 


>  <pKI>  (40) 
4.49

>  <ChemblID>  (40) 
CHEMBL2041079

>  <standardized_canonical_smiles>  (40) 
CCCc1cc2cn([C@@H]3O[C@H](CO)[C@@H](O)[C@H](O)[C@H]3O)c(=O)nc2o1

$$$$
4EKE_D1I_A_901
     RDKit          3D

 26 28  0  0  0  0  0  0  0  0999 V2000
   34.0200   23.6700   28.7350 N   0  0  0  0  0  0  0  0  0  0  0  0
   33.2910   24.1980   29.7450 C   0  0  0  0  0  0  0  0  0  0  0  0
   32.0630   24.1480   29.7990 O   0  0  0  0  0  0  0  0  0  0  0  0
   33.8990   24.9500   30.7170 N   0  0  0  0  0  0  0  0  0  0  0  0
   35.3310   24.8250   30.7920 C   0  0  0  0  0  0  0  0  0  0  0  0
   36.0440   24.4570   29.6610 C   0  0  0  0  0  0  0  0  0  0  0  0
   36.0380   25.7220   31.5790 O   0  0  0  0  0  0  0  0  0  0  0  0
   35.4380   23.7520   28.7040 C   0  0  0  0  0  0  0  0  0  0  0  0
   37.3090   24.7000   30.0110 C   0  0  0  0  0  0  0  0  0  0  0  0
   37.3120   25.4490   31.1540 C   0  0  0  0  0  0  0  0  0  0  0  0
   38.6270   25.9820   31.8180 C   0  0  0  0  0  0  0  0  0  0  0  0
   33.2750   22.8820   27.7560 C   0  0  0  0  0  0  0  0  0  0  0  0
   38.5290   27.5060   32.2400 C   0  0  0  0  0  0  0  0  0  0  0  0
   38.6750   27.7410   33.7750 C   0  0  0  0  0  0  0  0  0  0  0  0
   39.6980   26.7960   34.4580 C   0  0  0  0  0  0  0  0  0  0  0  0
   40.0800   27.3380   35.8490 C   0  0  0  0  0  0  0  0  0  0  0  0
   33.6900   23.0390   26.3120 C   0  0  0  0  0  0  0  0  0  0  0  0
   33.9220   24.4180   25.9970 O   0  0  0  0  0  0  0  0  0  0  0  0
   32.5590   22.4200   25.4650 C   0  0  0  0  0  0  0  0  0  0  0  0
   32.9110   22.3730   24.1090 O   0  0  0  0  0  0  0  0  0  0  0  0
   32.3220   20.9940   25.9170 C   0  0  0  0  0  0  0  0  0  0  0  0
   31.1980   20.4600   25.2050 O   0  0  0  0  0  0  0  0  0  0  0  0
   32.1250   20.8660   27.4440 C   0  0  0  0  0  0  0  0  0  0  0  0
   33.2190   21.4640   28.1430 O   0  0  0  0  0  0  0  0  0  0  0  0
   32.1580   19.4050   27.8750 C   0  0  0  0  0  0  0  0  0  0  0  0
   33.2000   18.6870   27.2470 O   0  0  0  0  0  0  0  0  0  0  0  0
  2  1  1  0
  8  1  1  0
 12  1  1  0
  3  2  2  0
  4  2  1  0
  5  4  2  0
  6  5  1  0
  7  5  1  0
  8  6  2  0
  9  6  1  0
 10  7  1  0
 10  9  2  0
 11 10  1  0
 13 11  1  0
 17 12  1  0
 24 12  1  0
 14 13  1  0
 15 14  1  0
 16 15  1  0
 18 17  1  0
 19 17  1  0
 20 19  1  0
 21 19  1  0
 22 21  1  0
 23 21  1  0
 24 23  1  0
 25 23  1  0
 26 25  1  0
A    1
N1
A    2
C2
A    3
O2
A    4
N3
A    5
C4
A    6
C5
A    7
O5
A    8
C6
A    9
C7
A   10
C8
A   11
C9
A   12
C1'
A   13
C10
A   14
C11
A   15
C12
A   16
C13
A   17
C2'
A   18
O2'
A   19
C3'
A   20
O3'
A   21
C4'
A   22
O4'
A   23
C5'
A   24
O5'
A   25
C6'
A   26
O6'
M  END
>  <Id>  (41) 
4EKE_D1I_A_901

>  <ChainId>  (41) 
A

>  <AsymId>  (41) 
B

>  <SeqNum>  (41) 
901

>  <Name>  (41) 
3-(beta-D-glucopyranosyl)-6-pentylfuro[2,3-d]pyrimidin-2(3H)-one

>  <SystematicName>  (41) 
3-[(2R,3R,4S,5S,6R)-6-(hydroxymethyl)-3,4,5-tris(oxidanyl)oxan-2-yl]-6-pentyl-furo[2,3-d]pyrimidin-2-one

>  <Synonyms>  (41) 


>  <Type>  (41) 
NON-POLYMER

>  <Formula>  (41) 
C17 H24 N2 O7

>  <ObservedFormula>  (41) 
C17 N2 O7

>  <MolecularWeight>  (41) 
368.382

>  <ModifiedDate>  (41) 
2012-07-20

>  <Parent>  (41) 


>  <OneLetterCode>  (41) 


>  <SubcomponentList>  (41) 


>  <AmbiguousFlag>  (41) 
N

>  <InsertionCode>  (41) 


>  <InstanceId>  (41) 
4EKE_D1I_A_901

>  <ChemCompId>  (41) 
D1I

>  <PdbId>  (41) 
4EKE

>  <ResidueNumber>  (41) 
901

>  <InChI>  (41) 
InChI=1S/C17H24N2O7/c1-2-3-4-5-10-6-9-7-19(17(24)18-15(9)25-10)16-14(23)13(22)12(21)11(8-20)26-16/h6-7,11-14,16,20-23H,2-5,8H2,1H3/t11-,12-,13+,14-,16-/m1/s1

>  <InChIKey>  (41) 
OPBPIQMYHFDOAO-XYFZXANASA-N

>  <SMILES>  (41) 
CCCCCC1=CC2=CN(C(=O)N=C2O1)[C@H]3[C@@H]([C@H]([C@@H]([C@H](O3)CO)O)O)O

>  <MissingHeavyAtoms>  (41) 
0

>  <Model>  (41) 
1

>  <AltIds>  (41) 


>  <pKI>  (41) 
4.48

>  <ChemblID>  (41) 
CHEMBL2041080

>  <standardized_canonical_smiles>  (41) 
CCCCCc1cc2cn([C@@H]3O[C@H](CO)[C@@H](O)[C@H](O)[C@H]3O)c(=O)nc2o1

$$$$
3T3E_GPQ_A_843
     RDKit          3D

 20 21  0  0  0  0  0  0  0  0999 V2000
   34.0910   23.4150   28.7620 N   0  0  0  0  0  0  0  0  0  0  0  0
   37.9410   23.9470   29.6410 Cl  0  0  0  0  0  0  0  0  0  0  0  0
   33.4180   24.1410   29.7510 C   0  0  0  0  0  0  0  0  0  0  0  0
   32.1990   24.1990   29.7530 O   0  0  0  0  0  0  0  0  0  0  0  0
   34.1320   24.8450   30.6820 N   0  0  0  0  0  0  0  0  0  0  0  0
   35.5290   24.8180   30.6560 C   0  0  0  0  0  0  0  0  0  0  0  0
   36.0900   25.4830   31.5090 O   0  0  0  0  0  0  0  0  0  0  0  0
   36.2170   24.0770   29.6870 C   0  0  0  0  0  0  0  0  0  0  0  0
   35.4960   23.3800   28.7350 C   0  0  0  0  0  0  0  0  0  0  0  0
   33.2680   22.7260   27.8040 C   0  0  0  0  0  0  0  0  0  0  0  0
   33.6950   23.0390   26.3370 C   0  0  0  0  0  0  0  0  0  0  0  0
   33.8200   24.4520   26.1690 O   0  0  0  0  0  0  0  0  0  0  0  0
   32.6370   22.4050   25.3900 C   0  0  0  0  0  0  0  0  0  0  0  0
   33.0680   22.3430   24.0410 O   0  0  0  0  0  0  0  0  0  0  0  0
   32.3680   20.9530   25.8460 C   0  0  0  0  0  0  0  0  0  0  0  0
   31.2900   20.4790   25.0900 O   0  0  0  0  0  0  0  0  0  0  0  0
   32.0650   20.7990   27.3690 C   0  0  0  0  0  0  0  0  0  0  0  0
   33.1990   21.2880   28.0890 O   0  0  0  0  0  0  0  0  0  0  0  0
   32.0500   19.3520   27.8050 C   0  0  0  0  0  0  0  0  0  0  0  0
   33.2080   18.6560   27.3040 O   0  0  0  0  0  0  0  0  0  0  0  0
  3  1  1  0
  9  1  1  0
 10  1  1  0
  8  2  1  0
  4  3  2  0
  5  3  1  0
  6  5  1  0
  7  6  2  0
  8  6  1  0
  9  8  2  0
 11 10  1  0
 18 10  1  0
 12 11  1  0
 13 11  1  0
 14 13  1  0
 15 13  1  0
 16 15  1  0
 17 15  1  0
 18 17  1  0
 19 17  1  0
 20 19  1  0
A    1
N1
A    2
CL1
A    3
C2
A    4
O2
A    5
N3
A    6
C4
A    7
O4
A    8
C5
A    9
C6
A   10
C1'
A   11
C2'
A   12
O2'
A   13
C3'
A   14
O3'
A   15
C4'
A   16
O4'
A   17
C5'
A   18
O5'
A   19
C6'
A   20
O6'
M  END
>  <Id>  (42) 
3T3E_GPQ_A_843

>  <ChainId>  (42) 
A

>  <AsymId>  (42) 
B

>  <SeqNum>  (42) 
843

>  <Name>  (42) 
5-chloro-1-(beta-D-glucopyranosyl)pyrimidine-2,4(1H,3H)-dione

>  <SystematicName>  (42) 
5-chloranyl-1-[(2R,3R,4S,5S,6R)-6-(hydroxymethyl)-3,4,5-tris(oxidanyl)oxan-2-yl]pyrimidine-2,4-dione

>  <Synonyms>  (42) 


>  <Type>  (42) 
NON-POLYMER

>  <Formula>  (42) 
C10 H13 Cl N2 O7

>  <ObservedFormula>  (42) 
C10 Cl N2 O7

>  <MolecularWeight>  (42) 
308.672

>  <ModifiedDate>  (42) 
2012-02-10

>  <Parent>  (42) 


>  <OneLetterCode>  (42) 


>  <SubcomponentList>  (42) 


>  <AmbiguousFlag>  (42) 
N

>  <InsertionCode>  (42) 


>  <InstanceId>  (42) 
3T3E_GPQ_A_843

>  <ChemCompId>  (42) 
GPQ

>  <PdbId>  (42) 
3T3E

>  <ResidueNumber>  (42) 
843

>  <InChI>  (42) 
InChI=1S/C10H13ClN2O7/c11-3-1-13(10(19)12-8(3)18)9-7(17)6(16)5(15)4(2-14)20-9/h1,4-7,9,14-17H,2H2,(H,12,18,19)/t4-,5-,6+,7-,9-/m1/s1

>  <InChIKey>  (42) 
NONSBAHWXCNSII-XSEHCYKFSA-N

>  <SMILES>  (42) 
C1=C(C(=O)NC(=O)N1[C@H]2[C@@H]([C@H]([C@@H]([C@H](O2)CO)O)O)O)Cl

>  <MissingHeavyAtoms>  (42) 
0

>  <Model>  (42) 
1

>  <AltIds>  (42) 


>  <pKI>  (42) 
5.99

>  <ChemblID>  (42) 
CHEMBL2041081

>  <standardized_canonical_smiles>  (42) 
O=c1[nH]c(=O)n([C@@H]2O[C@H](CO)[C@@H](O)[C@H](O)[C@H]2O)cc1Cl

$$$$
2OFF_LLP_A_680
     RDKit          3D

 24 25  0  0  0  0  0  0  0  0999 V2000
   24.8710   25.6560   30.3860 N   0  0  0  0  0  0  0  0  0  0  0  0
   23.7530   24.8820   30.6450 C   0  0  0  0  0  0  0  0  0  0  0  0
   22.8180   25.2910   31.7450 C   0  0  0  0  0  0  0  0  0  0  0  0
   23.4990   23.7420   29.8810 C   0  0  0  0  0  0  0  0  0  0  0  0
   22.4880   23.0600   30.1200 O   0  0  0  0  0  0  0  0  0  0  0  0
   24.3900   23.3830   28.8570 C   0  0  0  0  0  0  0  0  0  0  0  0
   24.1720   22.1580   27.9960 C   0  0  0  0  0  0  0  0  0  0  0  0
   25.5210   24.1760   28.6260 C   0  0  0  0  0  0  0  0  0  0  0  0
   25.7540   25.3140   29.3860 C   0  0  0  0  0  0  0  0  0  0  0  0
   26.4850   23.8450   27.5220 C   0  0  0  0  0  0  0  0  0  0  0  0
   26.1340   24.4790   26.2650 O   0  0  0  0  0  0  0  0  0  0  0  0
   27.1810   24.7880   25.0790 P   0  0  0  0  0  0  0  0  0  0  0  0
   26.2910   25.4470   24.1040 O   0  0  0  0  0  0  0  0  0  0  0  0
   28.1930   25.6820   25.6890 O   0  0  0  0  0  0  0  0  0  0  0  0
   27.7240   23.4760   24.6690 O   0  0  0  0  0  0  0  0  0  0  0  0
   21.5270   18.9200   22.4900 N   0  0  0  0  0  0  0  0  0  0  0  0
   20.2430   19.1240   23.1580 C   0  0  0  0  0  0  0  0  0  0  0  0
   20.4060   20.0830   24.3530 C   0  0  0  0  0  0  0  0  0  0  0  0
   21.2850   19.5560   25.4940 C   0  0  0  0  0  0  0  0  0  0  0  0
   21.5470   20.6500   26.5400 C   0  0  0  0  0  0  0  0  0  0  0  0
   22.7960   20.3580   27.3870 C   0  0  0  0  0  0  0  0  0  0  0  0
   23.0890   21.4700   28.3610 N   0  0  0  0  0  0  0  0  0  0  0  0
   19.1980   19.6570   22.1740 C   0  0  0  0  0  0  0  0  0  0  0  0
   18.0730   19.1450   22.1280 O   0  0  0  0  0  0  0  0  0  0  0  0
  2  1  2  0
  9  1  1  0
  3  2  1  0
  4  2  1  0
  5  4  1  0
  6  4  2  0
  7  6  1  0
  8  6  1  0
 22  7  2  0
  9  8  2  0
 10  8  1  0
 11 10  1  0
 12 11  1  0
 13 12  2  0
 14 12  1  0
 15 12  1  0
 17 16  1  0
 16 23  1  0
 18 17  1  0
 23 17  1  0
 19 18  1  0
 20 19  1  0
 21 20  1  0
 22 21  1  0
 24 23  2  0
A    1
N1
A    2
C2
A    3
C2'
A    4
C3
A    5
O3
A    6
C4
A    7
C4'
A    8
C5
A    9
C6
A   10
C5'
A   11
OP4
A   12
P
A   13
OP1
A   14
OP2
A   15
OP3
A   16
N
A   17
CA
A   18
CB
A   19
CG
A   20
CD
A   21
CE
A   22
NZ
A   23
C
A   24
O
M  END
>  <Id>  (43) 
2OFF_LLP_A_680

>  <ChainId>  (43) 
A

>  <AsymId>  (43) 
A

>  <SeqNum>  (43) 
680

>  <Name>  (43) 
(2S)-2-amino-6-[[3-hydroxy-2-methyl-5-(phosphonooxymethyl)pyridin-4-yl]methylideneamino]hexanoic acid

>  <SystematicName>  (43) 
2-azanyl-6-[(E)-[2-methyl-3-oxidanyl-5-(phosphonooxymethyl)pyridin-4-yl]methylideneamino]hexanoic acid

>  <Synonyms>  (43) 
N'-PYRIDOXYL-LYSINE-5'-MONOPHOSPHATE

>  <Type>  (43) 
L-PEPTIDE LINKING

>  <Formula>  (43) 
C14 H22 N3 O7 P

>  <ObservedFormula>  (43) 
P C14 N3 O6

>  <MolecularWeight>  (43) 
375.314

>  <ModifiedDate>  (43) 
2015-10-26

>  <Parent>  (43) 
LYS

>  <OneLetterCode>  (43) 
K

>  <SubcomponentList>  (43) 


>  <AmbiguousFlag>  (43) 
N

>  <InsertionCode>  (43) 


>  <InstanceId>  (43) 
2OFF_LLP_A_680

>  <ChemCompId>  (43) 
LLP

>  <PdbId>  (43) 
2OFF

>  <ResidueNumber>  (43) 
680

>  <InChI>  (43) 
InChI=1S/C14H22N3O7P/c1-9-13(18)11(10(6-17-9)8-24-25(21,22)23)7-16-5-3-2-4-12(15)14(19)20/h6-7,12,18H,2-5,8,15H2,1H3,(H,19,20)(H2,21,22,23)/b16-7+/t12-/m0/s1

>  <InChIKey>  (43) 
YQSOQJORMNSDJL-QFULYMJESA-N

>  <SMILES>  (43) 
Cc1c(c(c(cn1)COP(=O)(O)O)/C=N/CCCCC(C(=O)O)N)O

>  <MissingHeavyAtoms>  (43) 
1

>  <Model>  (43) 
1

>  <AltIds>  (43) 


>  <pKI>  (43) 
6.34

>  <ChemblID>  (43) 
CHEMBL1234956

>  <standardized_canonical_smiles>  (43) 
O=C(O)C[C@H](OC(=O)/C=C/c1ccc(O)cc1)[C@@H](OC(=O)/C=C/c1ccc(O)cc1)C(=O)O

$$$$
2OFF_OFF_A_930
     RDKit          3D

 33 34  0  0  0  0  0  0  0  0999 V2000
   25.2210   -2.0630   52.5510 C   0  0  0  0  0  0  0  0  0  0  0  0
   24.2330   -2.8410   53.1570 C   0  0  0  0  0  0  0  0  0  0  0  0
   24.5450   -4.1120   53.6390 C   0  0  0  0  0  0  0  0  0  0  0  0
   23.5890   -4.8770   54.2310 O   0  0  0  0  0  0  0  0  0  0  0  0
   25.8430   -4.6020   53.5160 C   0  0  0  0  0  0  0  0  0  0  0  0
   26.8290   -3.8200   52.9140 C   0  0  0  0  0  0  0  0  0  0  0  0
   26.5250   -2.5500   52.4280 C   0  0  0  0  0  0  0  0  0  0  0  0
   27.5350   -1.7920   51.8300 C   0  0  0  0  0  0  0  0  0  0  0  0
   27.4920   -0.3960   51.8190 C   0  0  0  0  0  0  0  0  0  0  0  0
   28.4800    0.3950   51.2290 C   0  0  0  0  0  0  0  0  0  0  0  0
   29.4610   -0.1220   50.6950 O   0  0  0  0  0  0  0  0  0  0  0  0
   28.3240    1.7570   51.2720 O   0  0  0  0  0  0  0  0  0  0  0  0
   29.4290    2.6190   50.8920 C   0  0  0  0  0  0  0  0  0  0  0  0
   28.8500    3.9490   50.3500 C   0  0  0  0  0  0  0  0  0  0  0  0
   28.3130    3.8660   48.9110 C   0  0  0  0  0  0  0  0  0  0  0  0
   27.3790    4.6520   48.6160 O   0  0  0  0  0  0  0  0  0  0  0  0
   28.8440    3.0330   48.1390 O   0  0  0  0  0  0  0  0  0  0  0  0
   30.2980    2.9510   52.1040 C   0  0  0  0  0  0  0  0  0  0  0  0
   31.5840    3.6840   51.6940 C   0  0  0  0  0  0  0  0  0  0  0  0
   31.5580    4.9310   51.6770 O   0  0  0  0  0  0  0  0  0  0  0  0
   32.5880    2.9970   51.4020 O   0  0  0  0  0  0  0  0  0  0  0  0
   30.7060    1.7410   52.7620 O   0  0  0  0  0  0  0  0  0  0  0  0
   30.1130    1.4430   53.9550 C   0  0  0  0  0  0  0  0  0  0  0  0
   29.4320    2.2670   54.5730 O   0  0  0  0  0  0  0  0  0  0  0  0
   30.3130    0.1580   54.4500 C   0  0  0  0  0  0  0  0  0  0  0  0
   29.7650   -0.2720   55.6520 C   0  0  0  0  0  0  0  0  0  0  0  0
   29.9750   -1.5710   56.1150 C   0  0  0  0  0  0  0  0  0  0  0  0
   30.0500   -1.8060   57.4890 C   0  0  0  0  0  0  0  0  0  0  0  0
   30.2500   -3.1030   57.9670 C   0  0  0  0  0  0  0  0  0  0  0  0
   30.3670   -4.1650   57.0700 C   0  0  0  0  0  0  0  0  0  0  0  0
   30.5630   -5.4310   57.5390 O   0  0  0  0  0  0  0  0  0  0  0  0
   30.2860   -3.9330   55.6960 C   0  0  0  0  0  0  0  0  0  0  0  0
   30.0870   -2.6370   55.2180 C   0  0  0  0  0  0  0  0  0  0  0  0
  2  1  2  0
  7  1  1  0
  3  2  1  0
  4  3  1  0
  5  3  2  0
  6  5  1  0
  7  6  2  0
  8  7  1  0
  9  8  2  0
 10  9  1  0
 11 10  2  0
 12 10  1  0
 13 12  1  0
 14 13  1  0
 18 13  1  0
 15 14  1  0
 16 15  1  0
 17 15  2  0
 19 18  1  0
 22 18  1  0
 20 19  1  0
 21 19  2  0
 23 22  1  0
 24 23  2  0
 25 23  1  0
 26 25  2  0
 27 26  1  0
 28 27  2  0
 33 27  1  0
 29 28  1  0
 30 29  2  0
 31 30  1  0
 32 30  1  0
 33 32  2  0
A    1
C19
A    2
C20
A    3
C21
A    4
O10
A    5
C22
A    6
C23
A    7
C18
A    8
C17
A    9
C16
A   10
C15
A   11
O9
A   12
O8
A   13
C12
A   14
C13
A   15
C14
A   16
O6
A   17
O7
A   18
C10
A   19
C11
A   20
O4
A   21
O5
A   22
O3
A   23
C9
A   24
O2
A   25
C8
A   26
C7
A   27
C4
A   28
C5
A   29
C6
A   30
C1
A   31
O1
A   32
C2
A   33
C3
M  END
>  <Id>  (44) 
2OFF_OFF_A_930

>  <ChainId>  (44) 
A

>  <AsymId>  (44) 
B

>  <SeqNum>  (44) 
930

>  <Name>  (44) 
2-DEOXY-3,4-BIS-O-[3-(4-HYDROXYPHENYL)PROPANOYL]-L-THREO-PENTARIC ACID

>  <SystematicName>  (44) 
(2R,3S)-2,3-bis[[(E)-3-(4-hydroxyphenyl)prop-2-enoyl]oxy]pentanedioic acid

>  <Synonyms>  (44) 
2,3-BIS((E)-3-(4-HYDROXYPHENYL)ACRYLOYLOXY)PENTANEDIOIC ACID

>  <Type>  (44) 
NON-POLYMER

>  <Formula>  (44) 
C23 H20 O10

>  <ObservedFormula>  (44) 
C23 O10

>  <MolecularWeight>  (44) 
456.399

>  <ModifiedDate>  (44) 
2011-06-04

>  <Parent>  (44) 


>  <OneLetterCode>  (44) 


>  <SubcomponentList>  (44) 


>  <AmbiguousFlag>  (44) 


>  <InsertionCode>  (44) 


>  <InstanceId>  (44) 
2OFF_OFF_A_930

>  <ChemCompId>  (44) 
OFF

>  <PdbId>  (44) 
2OFF

>  <ResidueNumber>  (44) 
930

>  <InChI>  (44) 
InChI=1S/C23H20O10/c24-16-7-1-14(2-8-16)5-11-20(28)32-18(13-19(26)27)22(23(30)31)33-21(29)12-6-15-3-9-17(25)10-4-15/h1-12,18,22,24-25H,13H2,(H,26,27)(H,30,31)/b11-5+,12-6+/t18-,22+/m0/s1

>  <InChIKey>  (44) 
VJLMRHSHSNLOGC-NOPZTHQXSA-N

>  <SMILES>  (44) 
c1cc(ccc1\C=C\C(=O)O[C@@H](CC(=O)O)[C@H](C(=O)O)OC(=O)\C=C\c2ccc(cc2)O)O

>  <MissingHeavyAtoms>  (44) 
0

>  <Model>  (44) 
1

>  <AltIds>  (44) 


>  <pKI>  (44) 
6.34

>  <ChemblID>  (44) 
CHEMBL1234956

>  <standardized_canonical_smiles>  (44) 
O=C(O)C[C@H](OC(=O)/C=C/c1ccc(O)cc1)[C@@H](OC(=O)/C=C/c1ccc(O)cc1)C(=O)O

$$$$
5LRF_KS3_A_902
     RDKit          3D

 26 29  0  0  0  0  0  0  0  0999 V2000
   21.8330   13.9040   56.4110 O   0  0  0  0  0  0  0  0  0  0  0  0
   21.9660   15.1700   55.7440 C   0  0  0  0  0  0  0  0  0  0  0  0
   20.7820   15.8800   56.1510 C   0  0  0  0  0  0  0  0  0  0  0  0
   20.9860   16.9440   57.1690 C   0  0  0  0  0  0  0  0  0  0  0  0
   21.9330   17.7940   56.5480 O   0  0  0  0  0  0  0  0  0  0  0  0
   20.1440   14.8960   56.8630 O   0  0  0  0  0  0  0  0  0  0  0  0
   18.8350   15.2700   56.7250 C   0  0  0  0  0  0  0  0  0  0  0  0
   18.6840   16.2200   57.8570 C   0  0  0  0  0  0  0  0  0  0  0  0
   17.2970   16.3480   57.7850 O   0  0  0  0  0  0  0  0  0  0  0  0
   19.5510   17.4100   57.3850 C   0  0  0  0  0  0  0  0  0  0  0  0
   19.6280   18.4510   58.3210 O   0  0  0  0  0  0  0  0  0  0  0  0
   18.3560   13.9210   56.5630 C   0  0  0  0  0  0  0  0  0  0  0  0
   18.0540   12.9120   57.3760 N   0  0  0  0  0  0  0  0  0  0  0  0
   17.6920   11.8080   56.5970 N   0  0  0  0  0  0  0  0  0  0  0  0
   17.8970   12.2180   55.3160 C   0  0  0  0  0  0  0  0  0  0  0  0
   18.3160   13.4980   55.3010 N   0  0  0  0  0  0  0  0  0  0  0  0
   17.7030   11.4700   54.0610 C   0  0  0  0  0  0  0  0  0  0  0  0
   18.2080   12.0230   52.8850 C   0  0  0  0  0  0  0  0  0  0  0  0
   18.0200   11.3560   51.7130 C   0  0  0  0  0  0  0  0  0  0  0  0
   18.5010   11.8460   50.5220 C   0  0  0  0  0  0  0  0  0  0  0  0
   18.2730   11.1300   49.3490 C   0  0  0  0  0  0  0  0  0  0  0  0
   17.5700    9.9170   49.3590 C   0  0  0  0  0  0  0  0  0  0  0  0
   17.0840    9.3820   50.5460 C   0  0  0  0  0  0  0  0  0  0  0  0
   17.2780   10.0710   51.7300 C   0  0  0  0  0  0  0  0  0  0  0  0
   16.7740    9.5780   52.9250 C   0  0  0  0  0  0  0  0  0  0  0  0
   16.9960   10.2760   54.0850 C   0  0  0  0  0  0  0  0  0  0  0  0
  2  1  1  0
  3  2  1  0
  4  3  1  0
  6  3  1  0
  5  4  1  0
 10  4  1  0
  7  6  1  0
  8  7  1  0
 12  7  1  0
  9  8  1  0
 10  8  1  0
 11 10  1  0
 13 12  1  0
 16 12  2  0
 14 13  1  0
 15 14  2  0
 16 15  1  0
 17 15  1  0
 18 17  2  0
 26 17  1  0
 19 18  1  0
 20 19  2  0
 24 19  1  0
 21 20  1  0
 22 21  2  0
 23 22  1  0
 24 23  2  0
 25 24  1  0
 26 25  2  0
A    1
O6'
A    2
C6'
A    3
C5'
A    4
C4'
A    5
O4'
A    6
O5'
A    7
C1'
A    8
C2'
A    9
O2'
A   10
C3'
A   11
O3'
A   12
C1
A   13
N2
A   14
N3
A   15
C4
A   16
N5
A   17
C6
A   18
C7
A   19
C8
A   20
C12
A   21
C13
A   22
C14
A   23
C15
A   24
C9
A   25
C10
A   26
C11
M  END
>  <Id>  (45) 
5LRF_KS3_A_902

>  <ChainId>  (45) 
A

>  <AsymId>  (45) 
C

>  <SeqNum>  (45) 
902

>  <Name>  (45) 
(2~{R},3~{S},4~{R},5~{R},6~{S})-2-(hydroxymethyl)-6-(3-naphthalen-2-yl-1~{H}-1,2,4-triazol-5-yl)oxane-3,4,5-triol

>  <SystematicName>  (45) 
(2~{R},3~{S},4~{R},5~{R},6~{S})-2-(hydroxymethyl)-6-(3-naphthalen-2-yl-1~{H}-1,2,4-triazol-5-yl)oxane-3,4,5-triol

>  <Synonyms>  (45) 


>  <Type>  (45) 
NON-POLYMER

>  <Formula>  (45) 
C18 H19 N3 O5

>  <ObservedFormula>  (45) 
C18 N3 O5

>  <MolecularWeight>  (45) 
357.361

>  <ModifiedDate>  (45) 
2017-05-26

>  <Parent>  (45) 


>  <OneLetterCode>  (45) 


>  <SubcomponentList>  (45) 


>  <AmbiguousFlag>  (45) 
N

>  <InsertionCode>  (45) 


>  <InstanceId>  (45) 
5LRF_KS3_A_902

>  <ChemCompId>  (45) 
KS3

>  <PdbId>  (45) 
5LRF

>  <ResidueNumber>  (45) 
902

>  <InChI>  (45) 
InChI=1S/C18H19N3O5/c22-8-12-13(23)14(24)15(25)16(26-12)18-19-17(20-21-18)11-6-5-9-3-1-2-4-10(9)7-11/h1-7,12-16,22-25H,8H2,(H,19,20,21)/t12-,13-,14+,15-,16-/m1/s1

>  <InChIKey>  (45) 
FJYFMJBUCUOYNH-IBEHDNSVSA-N

>  <SMILES>  (45) 
c1ccc2cc(ccc2c1)c3nc([nH]n3)[C@H]4[C@@H]([C@H]([C@@H]([C@H](O4)CO)O)O)O

>  <MissingHeavyAtoms>  (45) 
0

>  <Model>  (45) 
1

>  <AltIds>  (45) 


>  <pKI>  (45) 
6.39

>  <ChemblID>  (45) 
CHEMBL2408225

>  <standardized_canonical_smiles>  (45) 
OC[C@H]1O[C@@H](c2nnc(-c3ccc4ccccc4c3)[nH]2)[C@H](O)[C@@H](O)[C@@H]1O

$$$$
5LRE_KS3_A_902
     RDKit          3D

 26 29  0  0  0  0  0  0  0  0999 V2000
   22.0420   14.0900   56.6300 O   0  0  0  0  0  0  0  0  0  0  0  0
   21.8810   15.1980   55.7390 C   0  0  0  0  0  0  0  0  0  0  0  0
   20.7000   15.9070   56.2150 C   0  0  0  0  0  0  0  0  0  0  0  0
   20.9190   17.0080   57.2220 C   0  0  0  0  0  0  0  0  0  0  0  0
   21.8230   17.9840   56.6820 O   0  0  0  0  0  0  0  0  0  0  0  0
   20.0160   14.9200   56.9220 O   0  0  0  0  0  0  0  0  0  0  0  0
   18.6750   15.3050   56.8340 C   0  0  0  0  0  0  0  0  0  0  0  0
   18.5660   16.3160   57.9690 C   0  0  0  0  0  0  0  0  0  0  0  0
   17.1930   16.6490   58.1090 O   0  0  0  0  0  0  0  0  0  0  0  0
   19.4890   17.4960   57.5060 C   0  0  0  0  0  0  0  0  0  0  0  0
   19.6220   18.5940   58.4150 O   0  0  0  0  0  0  0  0  0  0  0  0
   18.2520   13.9160   56.6430 C   0  0  0  0  0  0  0  0  0  0  0  0
   18.0130   12.8630   57.4610 N   0  0  0  0  0  0  0  0  0  0  0  0
   17.7210   11.7790   56.6110 N   0  0  0  0  0  0  0  0  0  0  0  0
   17.8770   12.2170   55.3300 C   0  0  0  0  0  0  0  0  0  0  0  0
   18.2330   13.5090   55.3580 N   0  0  0  0  0  0  0  0  0  0  0  0
   17.7030   11.4830   54.0490 C   0  0  0  0  0  0  0  0  0  0  0  0
   18.2890   11.9780   52.8710 C   0  0  0  0  0  0  0  0  0  0  0  0
   18.1200   11.2960   51.6770 C   0  0  0  0  0  0  0  0  0  0  0  0
   18.7290   11.7810   50.3850 C   0  0  0  0  0  0  0  0  0  0  0  0
   17.8490   11.3530   49.2050 C   0  0  0  0  0  0  0  0  0  0  0  0
   17.6220    9.8410   49.1760 C   0  0  0  0  0  0  0  0  0  0  0  0
   17.0580    9.2170   50.4550 C   0  0  0  0  0  0  0  0  0  0  0  0
   17.2870   10.0570   51.6890 C   0  0  0  0  0  0  0  0  0  0  0  0
   16.7310    9.6240   52.8870 C   0  0  0  0  0  0  0  0  0  0  0  0
   16.9340   10.3300   54.0470 C   0  0  0  0  0  0  0  0  0  0  0  0
  2  1  1  0
  3  2  1  0
  4  3  1  0
  6  3  1  0
  5  4  1  0
 10  4  1  0
  7  6  1  0
  8  7  1  0
 12  7  1  0
  9  8  1  0
 10  8  1  0
 11 10  1  0
 13 12  1  0
 16 12  2  0
 14 13  1  0
 15 14  2  0
 16 15  1  0
 17 15  1  0
 18 17  2  0
 26 17  1  0
 19 18  1  0
 20 19  2  0
 24 19  1  0
 21 20  1  0
 22 21  2  0
 23 22  1  0
 24 23  2  0
 25 24  1  0
 26 25  2  0
A    1
O6'
A    2
C6'
A    3
C5'
A    4
C4'
A    5
O4'
A    6
O5'
A    7
C1'
A    8
C2'
A    9
O2'
A   10
C3'
A   11
O3'
A   12
C1
A   13
N2
A   14
N3
A   15
C4
A   16
N5
A   17
C6
A   18
C7
A   19
C8
A   20
C12
A   21
C13
A   22
C14
A   23
C15
A   24
C9
A   25
C10
A   26
C11
M  END
>  <Id>  (46) 
5LRE_KS3_A_902

>  <ChainId>  (46) 
A

>  <AsymId>  (46) 
C

>  <SeqNum>  (46) 
902

>  <Name>  (46) 
(2~{R},3~{S},4~{R},5~{R},6~{S})-2-(hydroxymethyl)-6-(3-naphthalen-2-yl-1~{H}-1,2,4-triazol-5-yl)oxane-3,4,5-triol

>  <SystematicName>  (46) 
(2~{R},3~{S},4~{R},5~{R},6~{S})-2-(hydroxymethyl)-6-(3-naphthalen-2-yl-1~{H}-1,2,4-triazol-5-yl)oxane-3,4,5-triol

>  <Synonyms>  (46) 


>  <Type>  (46) 
NON-POLYMER

>  <Formula>  (46) 
C18 H19 N3 O5

>  <ObservedFormula>  (46) 
C18 N3 O5

>  <MolecularWeight>  (46) 
357.361

>  <ModifiedDate>  (46) 
2017-05-26

>  <Parent>  (46) 


>  <OneLetterCode>  (46) 


>  <SubcomponentList>  (46) 


>  <AmbiguousFlag>  (46) 
N

>  <InsertionCode>  (46) 


>  <InstanceId>  (46) 
5LRE_KS3_A_902

>  <ChemCompId>  (46) 
KS3

>  <PdbId>  (46) 
5LRE

>  <ResidueNumber>  (46) 
902

>  <InChI>  (46) 
InChI=1S/C18H19N3O5/c22-8-12-13(23)14(24)15(25)16(26-12)18-19-17(20-21-18)11-6-5-9-3-1-2-4-10(9)7-11/h1-7,12-16,22-25H,8H2,(H,19,20,21)/t12-,13-,14+,15-,16-/m1/s1

>  <InChIKey>  (46) 
FJYFMJBUCUOYNH-IBEHDNSVSA-N

>  <SMILES>  (46) 
c1ccc2cc(ccc2c1)c3nc([nH]n3)[C@H]4[C@@H]([C@H]([C@@H]([C@H](O4)CO)O)O)O

>  <MissingHeavyAtoms>  (46) 
0

>  <Model>  (46) 
1

>  <AltIds>  (46) 


>  <pKI>  (46) 
6.39

>  <ChemblID>  (46) 
CHEMBL2408225

>  <standardized_canonical_smiles>  (46) 
OC[C@H]1O[C@@H](c2nnc(-c3ccc4ccccc4c3)[nH]2)[C@H](O)[C@@H](O)[C@@H]1O

$$$$
5LRC_73E_A_902
     RDKit          3D

 22 24  0  0  0  0  0  0  0  0999 V2000
   33.0270   22.7210   24.1840 O   0  0  0  0  0  0  0  0  0  0  0  0
   32.7000   22.6750   25.5780 C   0  0  0  0  0  0  0  0  0  0  0  0
   32.4140   21.2180   25.9620 C   0  0  0  0  0  0  0  0  0  0  0  0
   31.2310   20.7250   25.2960 O   0  0  0  0  0  0  0  0  0  0  0  0
   33.8660   23.2190   26.4300 C   0  0  0  0  0  0  0  0  0  0  0  0
   34.1130   24.6130   26.1940 O   0  0  0  0  0  0  0  0  0  0  0  0
   33.5830   22.9580   27.9190 C   0  0  0  0  0  0  0  0  0  0  0  0
   33.4690   21.5430   28.1800 O   0  0  0  0  0  0  0  0  0  0  0  0
   32.3190   20.9900   27.4920 C   0  0  0  0  0  0  0  0  0  0  0  0
   32.2060   19.5170   27.8780 C   0  0  0  0  0  0  0  0  0  0  0  0
   33.2370   18.7360   27.2610 O   0  0  0  0  0  0  0  0  0  0  0  0
   34.6940   23.4550   28.7630 C   0  0  0  0  0  0  0  0  0  0  0  0
   34.5610   24.0550   29.9660 N   0  0  0  0  0  0  0  0  0  0  0  0
   35.8170   24.3110   30.4280 C   0  0  0  0  0  0  0  0  0  0  0  0
   36.7180   23.8890   29.5290 N   0  0  0  0  0  0  0  0  0  0  0  0
   36.0030   23.3270   28.4760 N   0  0  0  0  0  0  0  0  0  0  0  0
   36.1710   24.9810   31.6970 C   0  0  0  0  0  0  0  0  0  0  0  0
   37.4790   25.4410   31.8870 C   0  0  0  0  0  0  0  0  0  0  0  0
   37.8060   26.1040   33.0650 C   0  0  0  0  0  0  0  0  0  0  0  0
   36.8460   26.3010   34.0590 C   0  0  0  0  0  0  0  0  0  0  0  0
   35.5540   25.8290   33.8700 C   0  0  0  0  0  0  0  0  0  0  0  0
   35.2150   25.1630   32.6860 C   0  0  0  0  0  0  0  0  0  0  0  0
  2  1  1  0
  3  2  1  0
  5  2  1  0
  4  3  1  0
  9  3  1  0
  6  5  1  0
  7  5  1  0
  8  7  1  0
 12  7  1  0
  9  8  1  0
 10  9  1  0
 11 10  1  0
 13 12  1  0
 16 12  2  0
 14 13  1  0
 15 14  2  0
 17 14  1  0
 16 15  1  0
 18 17  2  0
 22 17  1  0
 19 18  1  0
 20 19  2  0
 21 20  1  0
 22 21  2  0
A    1
O3'
A    2
C3'
A    3
C4'
A    4
O4'
A    5
C2'
A    6
O2'
A    7
C1'
A    8
O5'
A    9
C5'
A   10
C6'
A   11
O6'
A   12
C1
A   13
N5
A   14
C4
A   15
N3
A   16
N2
A   17
C6
A   18
C7
A   19
C8
A   20
C9
A   21
C10
A   22
C11
M  END
>  <Id>  (47) 
5LRC_73E_A_902

>  <ChainId>  (47) 
A

>  <AsymId>  (47) 
C

>  <SeqNum>  (47) 
902

>  <Name>  (47) 
(2~{R},3~{S},4~{R},5~{R},6~{S})-2-(hydroxymethyl)-6-(5-phenyl-4~{H}-1,2,4-triazol-3-yl)oxane-3,4,5-triol

>  <SystematicName>  (47) 
(2~{R},3~{S},4~{R},5~{R},6~{S})-2-(hydroxymethyl)-6-(5-phenyl-4~{H}-1,2,4-triazol-3-yl)oxane-3,4,5-triol

>  <Synonyms>  (47) 


>  <Type>  (47) 
NON-POLYMER

>  <Formula>  (47) 
C14 H17 N3 O5

>  <ObservedFormula>  (47) 
C14 N3 O5

>  <MolecularWeight>  (47) 
307.302

>  <ModifiedDate>  (47) 
2017-06-09

>  <Parent>  (47) 


>  <OneLetterCode>  (47) 


>  <SubcomponentList>  (47) 


>  <AmbiguousFlag>  (47) 
N

>  <InsertionCode>  (47) 


>  <InstanceId>  (47) 
5LRC_73E_A_902

>  <ChemCompId>  (47) 
73E

>  <PdbId>  (47) 
5LRC

>  <ResidueNumber>  (47) 
902

>  <InChI>  (47) 
InChI=1S/C14H17N3O5/c18-6-8-9(19)10(20)11(21)12(22-8)14-15-13(16-17-14)7-4-2-1-3-5-7/h1-5,8-12,18-21H,6H2,(H,15,16,17)/t8-,9-,10+,11-,12-/m1/s1

>  <InChIKey>  (47) 
GTQQOMHOHKJYAX-RMPHRYRLSA-N

>  <SMILES>  (47) 
c1ccc(cc1)c2[nH]c(nn2)[C@H]3[C@@H]([C@H]([C@@H]([C@H](O3)CO)O)O)O

>  <MissingHeavyAtoms>  (47) 
0

>  <Model>  (47) 
1

>  <AltIds>  (47) 


>  <pKI>  (47) 
5.15

>  <ChemblID>  (47) 
CHEMBL2408224

>  <standardized_canonical_smiles>  (47) 
OC[C@H]1O[C@@H](c2nnc(-c3ccccc3)[nH]2)[C@H](O)[C@@H](O)[C@@H]1O

$$$$
5LRD_KS2_A_901
     RDKit          3D

 23 25  0  0  0  0  0  0  0  0999 V2000
   33.0840   22.7070   24.2020 O   0  0  0  0  0  0  0  0  0  0  0  0
   32.7490   22.6410   25.6010 C   0  0  0  0  0  0  0  0  0  0  0  0
   32.5130   21.1950   25.9950 C   0  0  0  0  0  0  0  0  0  0  0  0
   31.3460   20.7120   25.3190 O   0  0  0  0  0  0  0  0  0  0  0  0
   33.8680   23.2430   26.4770 C   0  0  0  0  0  0  0  0  0  0  0  0
   34.0520   24.6400   26.1930 O   0  0  0  0  0  0  0  0  0  0  0  0
   33.5870   23.0040   27.9630 C   0  0  0  0  0  0  0  0  0  0  0  0
   33.5260   21.5900   28.2060 O   0  0  0  0  0  0  0  0  0  0  0  0
   32.3960   20.9910   27.5250 C   0  0  0  0  0  0  0  0  0  0  0  0
   32.2890   19.5260   27.9260 C   0  0  0  0  0  0  0  0  0  0  0  0
   33.3000   18.7280   27.3130 O   0  0  0  0  0  0  0  0  0  0  0  0
   34.6870   23.4970   28.8200 C   0  0  0  0  0  0  0  0  0  0  0  0
   34.5920   24.0650   30.0260 N   0  0  0  0  0  0  0  0  0  0  0  0
   35.8660   24.2970   30.4650 C   0  0  0  0  0  0  0  0  0  0  0  0
   36.7490   23.8880   29.5480 N   0  0  0  0  0  0  0  0  0  0  0  0
   35.9920   23.3830   28.4890 N   0  0  0  0  0  0  0  0  0  0  0  0
   36.2440   24.9450   31.7310 C   0  0  0  0  0  0  0  0  0  0  0  0
   35.2610   25.1750   32.6840 C   0  0  0  0  0  0  0  0  0  0  0  0
   35.5870   25.7930   33.8880 C   0  0  0  0  0  0  0  0  0  0  0  0
   36.9050   26.1650   34.1040 C   0  0  0  0  0  0  0  0  0  0  0  0
   37.2490   26.8420   35.4160 C   0  0  0  0  0  0  0  0  0  0  0  0
   37.8990   25.9280   33.1470 C   0  0  0  0  0  0  0  0  0  0  0  0
   37.5850   25.3030   31.9540 C   0  0  0  0  0  0  0  0  0  0  0  0
  2  1  1  0
  3  2  1  0
  5  2  1  0
  4  3  1  0
  9  3  1  0
  6  5  1  0
  7  5  1  0
  8  7  1  0
 12  7  1  0
  9  8  1  0
 10  9  1  0
 11 10  1  0
 13 12  1  0
 16 12  2  0
 14 13  1  0
 15 14  2  0
 17 14  1  0
 16 15  1  0
 18 17  2  0
 23 17  1  0
 19 18  1  0
 20 19  2  0
 21 20  1  0
 22 20  1  0
 23 22  2  0
A    1
O3'
A    2
C3'
A    3
C4'
A    4
O4'
A    5
C2'
A    6
O2'
A    7
C1'
A    8
O5'
A    9
C5'
A   10
C6'
A   11
O6'
A   12
C1
A   13
N5
A   14
C4
A   15
N3
A   16
N2
A   17
C6
A   18
C11
A   19
C10
A   20
C9
A   21
C12
A   22
C8
A   23
C7
M  END
>  <Id>  (48) 
5LRD_KS2_A_901

>  <ChainId>  (48) 
A

>  <AsymId>  (48) 
B

>  <SeqNum>  (48) 
901

>  <Name>  (48) 
(2~{R},3~{S},4~{R},5~{R},6~{S})-2-(hydroxymethyl)-6-[5-(4-methylphenyl)-4~{H}-1,2,4-triazol-3-yl]oxane-3,4,5-triol

>  <SystematicName>  (48) 
(2~{R},3~{S},4~{R},5~{R},6~{S})-2-(hydroxymethyl)-6-[5-(4-methylphenyl)-4~{H}-1,2,4-triazol-3-yl]oxane-3,4,5-triol

>  <Synonyms>  (48) 


>  <Type>  (48) 
NON-POLYMER

>  <Formula>  (48) 
C15 H19 N3 O5

>  <ObservedFormula>  (48) 
C15 N3 O5

>  <MolecularWeight>  (48) 
321.328

>  <ModifiedDate>  (48) 
2017-06-09

>  <Parent>  (48) 


>  <OneLetterCode>  (48) 


>  <SubcomponentList>  (48) 


>  <AmbiguousFlag>  (48) 
N

>  <InsertionCode>  (48) 


>  <InstanceId>  (48) 
5LRD_KS2_A_901

>  <ChemCompId>  (48) 
KS2

>  <PdbId>  (48) 
5LRD

>  <ResidueNumber>  (48) 
901

>  <InChI>  (48) 
InChI=1S/C15H19N3O5/c1-7-2-4-8(5-3-7)14-16-15(18-17-14)13-12(22)11(21)10(20)9(6-19)23-13/h2-5,9-13,19-22H,6H2,1H3,(H,16,17,18)/t9-,10-,11+,12-,13-/m1/s1

>  <InChIKey>  (48) 
YAGKTBWCGRXONX-UJPOAAIJSA-N

>  <SMILES>  (48) 
Cc1ccc(cc1)c2[nH]c(nn2)[C@H]3[C@@H]([C@H]([C@@H]([C@H](O3)CO)O)O)O

>  <MissingHeavyAtoms>  (48) 
0

>  <Model>  (48) 
1

>  <AltIds>  (48) 


>  <pKI>  (48) 
5.77

>  <ChemblID>  (48) 
CHEMBL3237966

>  <standardized_canonical_smiles>  (48) 
Cc1ccc(-c2nnc([C@@H]3O[C@H](CO)[C@@H](O)[C@H](O)[C@H]3O)[nH]2)cc1

$$$$
5OX3_B1N_A_901
     RDKit          3D

 23 25  0  0  0  0  0  0  0  0999 V2000
   33.5030   21.5050   28.1380 O   0  0  0  0  0  0  0  0  0  0  0  0
   32.3350   20.9670   27.4770 C   0  0  0  0  0  0  0  0  0  0  0  0
   32.4550   21.1390   25.9220 C   0  0  0  0  0  0  0  0  0  0  0  0
   31.2610   20.6510   25.2880 O   0  0  0  0  0  0  0  0  0  0  0  0
   32.6940   22.5950   25.5550 C   0  0  0  0  0  0  0  0  0  0  0  0
   33.0530   22.6700   24.1530 O   0  0  0  0  0  0  0  0  0  0  0  0
   33.8530   23.1710   26.4260 C   0  0  0  0  0  0  0  0  0  0  0  0
   34.0440   24.5780   26.1730 O   0  0  0  0  0  0  0  0  0  0  0  0
   33.5770   22.9270   27.9440 C   0  0  0  0  0  0  0  0  0  0  0  0
   37.9320   25.9580   32.9320 C   0  0  0  0  0  0  0  0  0  0  0  0
   36.2320   24.9160   31.5380 C   0  0  0  0  0  0  0  0  0  0  0  0
   36.0140   23.3090   28.4730 N   0  0  0  0  0  0  0  0  0  0  0  0
   36.7340   23.8570   29.4760 N   0  0  0  0  0  0  0  0  0  0  0  0
   35.8680   24.3080   30.3860 C   0  0  0  0  0  0  0  0  0  0  0  0
   35.3050   25.1120   32.5780 C   0  0  0  0  0  0  0  0  0  0  0  0
   35.6870   25.7340   33.7730 C   0  0  0  0  0  0  0  0  0  0  0  0
   37.0030   26.1430   33.9480 C   0  0  0  0  0  0  0  0  0  0  0  0
   37.3610   26.7310   35.1130 O   0  0  0  0  0  0  0  0  0  0  0  0
   37.5570   25.3440   31.7340 C   0  0  0  0  0  0  0  0  0  0  0  0
   34.6100   24.0470   29.9700 N   0  0  0  0  0  0  0  0  0  0  0  0
   34.7260   23.4350   28.7920 C   0  0  0  0  0  0  0  0  0  0  0  0
   32.1820   19.5090   27.8480 C   0  0  0  0  0  0  0  0  0  0  0  0
   33.2740   18.7780   27.2640 O   0  0  0  0  0  0  0  0  0  0  0  0
  2  1  1  0
  9  1  1  0
  3  2  1  0
 22  2  1  0
  4  3  1  0
  5  3  1  0
  6  5  1  0
  7  5  1  0
  8  7  1  0
  9  7  1  0
 21  9  1  0
 17 10  2  0
 19 10  1  0
 14 11  1  0
 15 11  1  0
 19 11  2  0
 13 12  1  0
 21 12  1  0
 14 13  2  0
 20 14  1  0
 16 15  2  0
 17 16  1  0
 18 17  1  0
 21 20  2  0
 23 22  1  0
A    1
O5'
A    2
C5'
A    3
C4'
A    4
O4'
A    5
C3'
A    6
O3'
A    7
C2'
A    8
O2'
A    9
C1'
A   10
C8
A   11
C6
A   12
N2
A   13
N3
A   14
C4
A   15
C11
A   16
C10
A   17
C9
A   18
O12
A   19
C7
A   20
N5
A   21
C1
A   22
C6'
A   23
O6'
M  END
>  <Id>  (49) 
5OX3_B1N_A_901

>  <ChainId>  (49) 
A

>  <AsymId>  (49) 
B

>  <SeqNum>  (49) 
901

>  <Name>  (49) 
(2~{R},3~{S},4~{R},5~{R},6~{S})-2-(hydroxymethyl)-6-[3-(4-hydroxyphenyl)-1~{H}-1,2,4-triazol-5-yl]oxane-3,4,5-triol

>  <SystematicName>  (49) 
(2~{R},3~{S},4~{R},5~{R},6~{S})-2-(hydroxymethyl)-6-[3-(4-hydroxyphenyl)-1~{H}-1,2,4-triazol-5-yl]oxane-3,4,5-triol

>  <Synonyms>  (49) 


>  <Type>  (49) 
NON-POLYMER

>  <Formula>  (49) 
C14 H17 N3 O6

>  <ObservedFormula>  (49) 
C14 N3 O6

>  <MolecularWeight>  (49) 
323.301

>  <ModifiedDate>  (49) 
2018-02-23

>  <Parent>  (49) 


>  <OneLetterCode>  (49) 


>  <SubcomponentList>  (49) 


>  <AmbiguousFlag>  (49) 
N

>  <InsertionCode>  (49) 


>  <InstanceId>  (49) 
5OX3_B1N_A_901

>  <ChemCompId>  (49) 
B1N

>  <PdbId>  (49) 
5OX3

>  <ResidueNumber>  (49) 
901

>  <InChI>  (49) 
InChI=1S/C14H17N3O6/c18-5-8-9(20)10(21)11(22)12(23-8)14-15-13(16-17-14)6-1-3-7(19)4-2-6/h1-4,8-12,18-22H,5H2,(H,15,16,17)/t8-,9-,10+,11-,12-/m1/s1

>  <InChIKey>  (49) 
YFAQQSHHRSTJJB-RMPHRYRLSA-N

>  <SMILES>  (49) 
c1cc(ccc1c2nc([nH]n2)[C@H]3[C@@H]([C@H]([C@@H]([C@H](O3)CO)O)O)O)O

>  <MissingHeavyAtoms>  (49) 
0

>  <Model>  (49) 
1

>  <AltIds>  (49) 


>  <pKI>  (49) 
5.54

>  <ChemblID>  (49) 
CHEMBL3237969

>  <standardized_canonical_smiles>  (49) 
OC[C@H]1O[C@@H](c2nnc(-c3ccc(O)cc3)[nH]2)[C@H](O)[C@@H](O)[C@@H]1O

$$$$
5OX1_B1K_A_901
     RDKit          3D

 24 26  0  0  0  0  0  0  0  0999 V2000
   34.6970   23.5000   28.8860 C   0  0  0  0  0  0  0  0  0  0  0  0
   35.8070   24.3570   30.5000 C   0  0  0  0  0  0  0  0  0  0  0  0
   36.1390   24.9660   31.6640 C   0  0  0  0  0  0  0  0  0  0  0  0
   37.4510   25.4110   31.8960 C   0  0  0  0  0  0  0  0  0  0  0  0
   36.6970   23.9530   29.5960 N   0  0  0  0  0  0  0  0  0  0  0  0
   35.9950   23.4040   28.5820 N   0  0  0  0  0  0  0  0  0  0  0  0
   36.3800   26.8240   36.4010 C   0  0  0  0  0  0  0  0  0  0  0  0
   37.2270   26.8410   35.2630 O   0  0  0  0  0  0  0  0  0  0  0  0
   36.8130   26.2150   34.1120 C   0  0  0  0  0  0  0  0  0  0  0  0
   35.5010   25.7690   33.8880 C   0  0  0  0  0  0  0  0  0  0  0  0
   35.1820   25.1390   32.6770 C   0  0  0  0  0  0  0  0  0  0  0  0
   37.7690   26.0400   33.1110 C   0  0  0  0  0  0  0  0  0  0  0  0
   34.5520   24.1030   30.0730 N   0  0  0  0  0  0  0  0  0  0  0  0
   33.5760   22.9860   28.0100 C   0  0  0  0  0  0  0  0  0  0  0  0
   33.5060   21.5700   28.1840 O   0  0  0  0  0  0  0  0  0  0  0  0
   32.3750   21.0100   27.4970 C   0  0  0  0  0  0  0  0  0  0  0  0
   32.2180   19.5490   27.8820 C   0  0  0  0  0  0  0  0  0  0  0  0
   33.2870   18.7980   27.2790 O   0  0  0  0  0  0  0  0  0  0  0  0
   32.5270   21.1890   25.9440 C   0  0  0  0  0  0  0  0  0  0  0  0
   31.3220   20.6940   25.2840 O   0  0  0  0  0  0  0  0  0  0  0  0
   32.7330   22.6360   25.6150 C   0  0  0  0  0  0  0  0  0  0  0  0
   33.0670   22.7390   24.2030 O   0  0  0  0  0  0  0  0  0  0  0  0
   33.8720   23.2370   26.4940 C   0  0  0  0  0  0  0  0  0  0  0  0
   34.0470   24.6380   26.2280 O   0  0  0  0  0  0  0  0  0  0  0  0
  6  1  2  0
 13  1  1  0
 14  1  1  0
  3  2  1  0
  5  2  1  0
 13  2  2  0
  4  3  2  0
 11  3  1  0
 12  4  1  0
  6  5  1  0
  8  7  1  0
  9  8  1  0
 10  9  1  0
 12  9  2  0
 11 10  2  0
 15 14  1  0
 23 14  1  0
 16 15  1  0
 17 16  1  0
 19 16  1  0
 18 17  1  0
 20 19  1  0
 21 19  1  0
 22 21  1  0
 23 21  1  0
 24 23  1  0
A    1
C1
A    2
C4
A    3
C6
A    4
C7
A    5
N3
A    6
N2
A    7
C13
A    8
O12
A    9
C9
A   10
C10
A   11
C11
A   12
C8
A   13
N5
A   14
C1'
A   15
O5'
A   16
C5'
A   17
C6'
A   18
O6'
A   19
C4'
A   20
O4'
A   21
C3'
A   22
O3'
A   23
C2'
A   24
O2'
M  END
>  <Id>  (50) 
5OX1_B1K_A_901

>  <ChainId>  (50) 
A

>  <AsymId>  (50) 
B

>  <SeqNum>  (50) 
901

>  <Name>  (50) 
(2~{R},3~{S},4~{R},5~{R},6~{S})-2-(hydroxymethyl)-6-[5-(4-methoxyphenyl)-1~{H}-1,2,4-triazol-3-yl]oxane-3,4,5-triol

>  <SystematicName>  (50) 
(2~{R},3~{S},4~{R},5~{R},6~{S})-2-(hydroxymethyl)-6-[5-(4-methoxyphenyl)-1~{H}-1,2,4-triazol-3-yl]oxane-3,4,5-triol

>  <Synonyms>  (50) 
JLH270

>  <Type>  (50) 
NON-POLYMER

>  <Formula>  (50) 
C15 H19 N3 O6

>  <ObservedFormula>  (50) 
C15 N3 O6

>  <MolecularWeight>  (50) 
337.328

>  <ModifiedDate>  (50) 
2018-02-23

>  <Parent>  (50) 


>  <OneLetterCode>  (50) 


>  <SubcomponentList>  (50) 


>  <AmbiguousFlag>  (50) 
N

>  <InsertionCode>  (50) 


>  <InstanceId>  (50) 
5OX1_B1K_A_901

>  <ChemCompId>  (50) 
B1K

>  <PdbId>  (50) 
5OX1

>  <ResidueNumber>  (50) 
901

>  <InChI>  (50) 
InChI=1S/C15H19N3O6/c1-23-8-4-2-7(3-5-8)14-16-15(18-17-14)13-12(22)11(21)10(20)9(6-19)24-13/h2-5,9-13,19-22H,6H2,1H3,(H,16,17,18)/t9-,10-,11+,12-,13-/m1/s1

>  <InChIKey>  (50) 
YPWXLHANNFWVLG-UJPOAAIJSA-N

>  <SMILES>  (50) 
COc1ccc(cc1)c2[nH]nc(n2)[C@H]3[C@@H]([C@H]([C@@H]([C@H](O3)CO)O)O)O

>  <MissingHeavyAtoms>  (50) 
0

>  <Model>  (50) 
1

>  <AltIds>  (50) 


>  <pKI>  (50) 
5.72

>  <ChemblID>  (50) 
CHEMBL3237970

>  <standardized_canonical_smiles>  (50) 
COc1ccc(-c2nnc([C@@H]3O[C@H](CO)[C@@H](O)[C@H](O)[C@H]3O)[nH]2)cc1

$$$$
5OX4_B1W_A_901
     RDKit          3D

 23 25  0  0  0  0  0  0  0  0999 V2000
   34.6490   23.4270   28.7910 C   0  0  0  0  0  0  0  0  0  0  0  0
   35.8630   24.2840   30.3610 C   0  0  0  0  0  0  0  0  0  0  0  0
   36.1780   24.9670   31.6410 C   0  0  0  0  0  0  0  0  0  0  0  0
   35.6440   25.8310   33.8280 C   0  0  0  0  0  0  0  0  0  0  0  0
   35.2460   25.1760   32.6560 C   0  0  0  0  0  0  0  0  0  0  0  0
   31.2840   20.6500   25.2970 O   0  0  0  0  0  0  0  0  0  0  0  0
   32.4670   21.1350   25.9550 C   0  0  0  0  0  0  0  0  0  0  0  0
   32.3270   20.9550   27.4800 C   0  0  0  0  0  0  0  0  0  0  0  0
   32.1980   19.4840   27.8380 C   0  0  0  0  0  0  0  0  0  0  0  0
   33.2720   18.7290   27.2840 O   0  0  0  0  0  0  0  0  0  0  0  0
   32.6990   22.5810   25.5860 C   0  0  0  0  0  0  0  0  0  0  0  0
   33.0330   22.6610   24.1840 O   0  0  0  0  0  0  0  0  0  0  0  0
   33.8330   23.1550   26.4510 C   0  0  0  0  0  0  0  0  0  0  0  0
   34.0010   24.5430   26.1790 O   0  0  0  0  0  0  0  0  0  0  0  0
   33.5400   22.9230   27.9510 C   0  0  0  0  0  0  0  0  0  0  0  0
   33.4640   21.5160   28.1480 O   0  0  0  0  0  0  0  0  0  0  0  0
   34.5800   24.0480   29.9830 N   0  0  0  0  0  0  0  0  0  0  0  0
   36.7450   23.8430   29.4640 N   0  0  0  0  0  0  0  0  0  0  0  0
   35.9530   23.2960   28.4580 N   0  0  0  0  0  0  0  0  0  0  0  0
   37.5060   25.4030   31.8010 C   0  0  0  0  0  0  0  0  0  0  0  0
   37.8880   26.0570   32.9700 C   0  0  0  0  0  0  0  0  0  0  0  0
   36.9590   26.2640   33.9790 C   0  0  0  0  0  0  0  0  0  0  0  0
   37.3320   26.9030   35.1180 N   0  0  0  0  0  0  0  0  0  0  0  0
 15  1  1  0
 17  1  1  0
 19  1  2  0
  3  2  1  0
 17  2  1  0
 18  2  2  0
  5  3  1  0
 20  3  2  0
  5  4  2  0
 22  4  1  0
  7  6  1  0
  8  7  1  0
 11  7  1  0
  9  8  1  0
 16  8  1  0
 10  9  1  0
 12 11  1  0
 13 11  1  0
 14 13  1  0
 15 13  1  0
 16 15  1  0
 19 18  1  0
 21 20  1  0
 22 21  2  0
 23 22  1  0
A    1
C1
A    2
C4
A    3
C6
A    4
C10
A    5
C11
A    6
O4'
A    7
C4'
A    8
C5'
A    9
C6'
A   10
O6'
A   11
C3'
A   12
O3'
A   13
C2'
A   14
O2'
A   15
C1'
A   16
O5'
A   17
N5
A   18
N3
A   19
N2
A   20
C7
A   21
C8
A   22
C9
A   23
N12
M  END
>  <Id>  (51) 
5OX4_B1W_A_901

>  <ChainId>  (51) 
A

>  <AsymId>  (51) 
B

>  <SeqNum>  (51) 
901

>  <Name>  (51) 
(2~{S},3~{R},4~{R},5~{S},6~{R})-2-[5-(4-aminophenyl)-4~{H}-1,2,4-triazol-3-yl]-6-(hydroxymethyl)oxane-3,4,5-triol

>  <SystematicName>  (51) 
(2~{S},3~{R},4~{R},5~{S},6~{R})-2-[5-(4-aminophenyl)-4~{H}-1,2,4-triazol-3-yl]-6-(hydroxymethyl)oxane-3,4,5-triol

>  <Synonyms>  (51) 


>  <Type>  (51) 
NON-POLYMER

>  <Formula>  (51) 
C14 H18 N4 O5

>  <ObservedFormula>  (51) 
C14 N4 O5

>  <MolecularWeight>  (51) 
322.317

>  <ModifiedDate>  (51) 
2018-02-23

>  <Parent>  (51) 


>  <OneLetterCode>  (51) 


>  <SubcomponentList>  (51) 


>  <AmbiguousFlag>  (51) 
N

>  <InsertionCode>  (51) 


>  <InstanceId>  (51) 
5OX4_B1W_A_901

>  <ChemCompId>  (51) 
B1W

>  <PdbId>  (51) 
5OX4

>  <ResidueNumber>  (51) 
901

>  <InChI>  (51) 
InChI=1S/C14H18N4O5/c15-7-3-1-6(2-4-7)13-16-14(18-17-13)12-11(22)10(21)9(20)8(5-19)23-12/h1-4,8-12,19-22H,5,15H2,(H,16,17,18)/t8-,9-,10+,11-,12-/m1/s1

>  <InChIKey>  (51) 
NDNZXPQRERAKKG-RMPHRYRLSA-N

>  <SMILES>  (51) 
c1cc(ccc1c2[nH]c(nn2)[C@H]3[C@@H]([C@H]([C@@H]([C@H](O3)CO)O)O)O)N

>  <MissingHeavyAtoms>  (51) 
0

>  <Model>  (51) 
1

>  <AltIds>  (51) 


>  <pKI>  (51) 
6.17

>  <ChemblID>  (51) 
CHEMBL3237972

>  <standardized_canonical_smiles>  (51) 
Nc1ccc(-c2nnc([C@@H]3O[C@H](CO)[C@@H](O)[C@H](O)[C@H]3O)[nH]2)cc1

$$$$
4CTM_MIF_A_998
     RDKit          3D

 17 18  0  0  0  0  0  0  0  0999 V2000
   33.8420   23.0970   26.3350 C   0  0  0  0  0  0  0  0  0  0  0  0
   33.9320   24.5280   26.1850 O   0  0  0  0  0  0  0  0  0  0  0  0
   32.6490   22.5290   25.5450 C   0  0  0  0  0  0  0  0  0  0  0  0
   32.9420   22.6280   24.1470 O   0  0  0  0  0  0  0  0  0  0  0  0
   32.4180   21.0540   25.8740 C   0  0  0  0  0  0  0  0  0  0  0  0
   33.7870   22.7450   27.8340 C   0  0  0  0  0  0  0  0  0  0  0  0
   31.2250   20.6130   25.2180 O   0  0  0  0  0  0  0  0  0  0  0  0
   32.3020   20.8470   27.3910 C   0  0  0  0  0  0  0  0  0  0  0  0
   32.1120   19.3840   27.7630 C   0  0  0  0  0  0  0  0  0  0  0  0
   33.1780   18.6460   27.1580 O   0  0  0  0  0  0  0  0  0  0  0  0
   33.4990   21.3420   28.0290 O   0  0  0  0  0  0  0  0  0  0  0  0
   35.3620   24.6560   30.7840 N   0  0  0  0  0  0  0  0  0  0  0  0
   34.6790   24.0780   29.8030 C   0  0  0  0  0  0  0  0  0  0  0  0
   35.3760   23.0860   28.6540 S   0  0  0  0  0  0  0  0  0  0  0  0
   33.3640   24.2170   29.6290 N   0  0  0  0  0  0  0  0  0  0  0  0
   32.8760   23.5610   28.5610 C   0  0  0  0  0  0  0  0  0  0  0  0
   31.6730   23.6350   28.3050 O   0  0  0  0  0  0  0  0  0  0  0  0
  2  1  1  0
  3  1  1  0
  6  1  1  0
  4  3  1  0
  5  3  1  0
  7  5  1  0
  8  5  1  0
 11  6  1  0
 14  6  1  0
 16  6  1  0
  9  8  1  0
 11  8  1  0
 10  9  1  0
 13 12  2  0
 14 13  1  0
 15 13  1  0
 16 15  1  0
 17 16  2  0
A    1
C2
A    2
O2
A    3
C3
A    4
O3
A    5
C4
A    6
C1
A    7
O4
A    8
C5
A    9
C6
A   10
O6
A   11
O5
A   12
N2
A   13
C8
A   14
S1
A   15
N1
A   16
C7
A   17
O7
M  END
>  <Id>  (52) 
4CTM_MIF_A_998

>  <ChainId>  (52) 
A

>  <AsymId>  (52) 
B

>  <SeqNum>  (52) 
998

>  <Name>  (52) 
(5R,7R,8S,9S,10R)-8,9,10-trihydroxy-7-(hydroxymethyl)-2-imino-6-oxa-1-thia-3-azaspiro[4.5]decan-4-one

>  <SystematicName>  (52) 
(6R,7R,8S,9S,10R)-2-azanylidene-7-(hydroxymethyl)-8,9,10-tris(oxidanyl)-6-oxa-1-thia-3-azaspiro[4.5]decan-4-one

>  <Synonyms>  (52) 


>  <Type>  (52) 
non-polymer

>  <Formula>  (52) 
C8 H12 N2 O6 S

>  <ObservedFormula>  (52) 
C8 S N2 O6

>  <MolecularWeight>  (52) 
264.256

>  <ModifiedDate>  (52) 
2014-08-01

>  <Parent>  (52) 


>  <OneLetterCode>  (52) 


>  <SubcomponentList>  (52) 


>  <AmbiguousFlag>  (52) 
N

>  <InsertionCode>  (52) 


>  <InstanceId>  (52) 
4CTM_MIF_A_998

>  <ChemCompId>  (52) 
MIF

>  <PdbId>  (52) 
4CTM

>  <ResidueNumber>  (52) 
998

>  <InChI>  (52) 
InChI=1S/C8H12N2O6S/c9-7-10-6(15)8(17-7)5(14)4(13)3(12)2(1-11)16-8/h2-5,11-14H,1H2,(H2,9,10,15)/t2-,3-,4+,5-,8-/m1/s1

>  <InChIKey>  (52) 
UADFNVXVJZELQM-UXDJRKLDSA-N

>  <SMILES>  (52) 
C([C@@H]1[C@H]([C@@H]([C@H]([C@]2(O1)C(=O)NC(=N)S2)O)O)O)O

>  <MissingHeavyAtoms>  (52) 
0

>  <Model>  (52) 
1

>  <AltIds>  (52) 


>  <pKI>  (52) 
4.62

>  <ChemblID>  (52) 
CHEMBL3310890

>  <standardized_canonical_smiles>  (52) 
NC1=NC(=O)[C@]2(O[C@H](CO)[C@@H](O)[C@H](O)[C@H]2O)S1

$$$$
4CTN_M8P_A_998
     RDKit          3D

 29 32  0  0  0  0  0  0  0  0999 V2000
   35.9540   25.6870   33.4880 C   0  0  0  0  0  0  0  0  0  0  0  0
   36.5100   26.3770   34.5650 C   0  0  0  0  0  0  0  0  0  0  0  0
   35.7260   26.6980   35.6630 C   0  0  0  0  0  0  0  0  0  0  0  0
   36.2690   27.3980   36.7380 C   0  0  0  0  0  0  0  0  0  0  0  0
   37.6190   27.7610   36.7230 C   0  0  0  0  0  0  0  0  0  0  0  0
   38.4220   27.4390   35.6280 C   0  0  0  0  0  0  0  0  0  0  0  0
   37.8630   26.7490   34.5500 C   0  0  0  0  0  0  0  0  0  0  0  0
   38.6520   26.4200   33.4550 C   0  0  0  0  0  0  0  0  0  0  0  0
   38.0970   25.7260   32.3800 C   0  0  0  0  0  0  0  0  0  0  0  0
   36.7460   25.3600   32.3770 C   0  0  0  0  0  0  0  0  0  0  0  0
   36.2370   24.6460   31.2720 C   0  0  0  0  0  0  0  0  0  0  0  0
   36.9840   23.9120   30.6340 O   0  0  0  0  0  0  0  0  0  0  0  0
   34.9400   24.8280   30.9650 N   0  0  0  0  0  0  0  0  0  0  0  0
   34.3880   24.1460   29.9590 C   0  0  0  0  0  0  0  0  0  0  0  0
   35.1640   23.0800   28.8730 S   0  0  0  0  0  0  0  0  0  0  0  0
   33.0950   24.2870   29.6570 N   0  0  0  0  0  0  0  0  0  0  0  0
   32.6620   23.5560   28.6210 C   0  0  0  0  0  0  0  0  0  0  0  0
   31.4750   23.6430   28.3040 O   0  0  0  0  0  0  0  0  0  0  0  0
   33.6200   22.7260   27.9670 C   0  0  0  0  0  0  0  0  0  0  0  0
   33.3470   21.3060   28.1710 O   0  0  0  0  0  0  0  0  0  0  0  0
   32.2040   20.7740   27.4860 C   0  0  0  0  0  0  0  0  0  0  0  0
   32.0660   19.3040   27.8660 C   0  0  0  0  0  0  0  0  0  0  0  0
   33.1050   18.5710   27.2070 O   0  0  0  0  0  0  0  0  0  0  0  0
   32.3340   21.0050   25.9640 C   0  0  0  0  0  0  0  0  0  0  0  0
   31.1710   20.5810   25.2790 O   0  0  0  0  0  0  0  0  0  0  0  0
   32.5130   22.4880   25.6670 C   0  0  0  0  0  0  0  0  0  0  0  0
   32.7630   22.6340   24.2730 O   0  0  0  0  0  0  0  0  0  0  0  0
   33.7290   23.0660   26.4720 C   0  0  0  0  0  0  0  0  0  0  0  0
   33.8350   24.4940   26.3010 O   0  0  0  0  0  0  0  0  0  0  0  0
  2  1  2  0
 10  1  1  0
  3  2  1  0
  7  2  1  0
  4  3  2  0
  5  4  1  0
  6  5  2  0
  7  6  1  0
  8  7  2  0
  9  8  1  0
 10  9  2  0
 11 10  1  0
 12 11  2  0
 13 11  1  0
 14 13  2  0
 15 14  1  0
 16 14  1  0
 19 15  1  0
 17 16  1  0
 18 17  2  0
 19 17  1  0
 20 19  1  0
 28 19  1  0
 21 20  1  0
 22 21  1  0
 24 21  1  0
 23 22  1  0
 25 24  1  0
 26 24  1  0
 27 26  1  0
 28 26  1  0
 29 28  1  0
A    1
C11
A    2
C12
A    3
C13
A    4
C14
A    5
C15
A    6
C16
A    7
C17
A    8
C18
A    9
C19
A   10
C10
A   11
C9
A   12
O8
A   13
N2
A   14
C8
A   15
S1
A   16
N1
A   17
C7
A   18
O7
A   19
C1
A   20
O5
A   21
C5
A   22
C6
A   23
O6
A   24
C4
A   25
O4
A   26
C3
A   27
O3
A   28
C2
A   29
O2
M  END
>  <Id>  (53) 
4CTN_M8P_A_998

>  <ChainId>  (53) 
A

>  <AsymId>  (53) 
D

>  <SeqNum>  (53) 
998

>  <Name>  (53) 
N-[(2Z,5R,7R,8S,9S,10R)-8,9,10-trihydroxy-7-(hydroxymethyl)-4-oxo-6-oxa-1-thia-3-azaspiro[4.5]dec-2-ylidene]naphthalene-2-carboxamide

>  <SystematicName>  (53) 
(NZ)-N-[(6R,7R,8S,9S,10R)-7-(hydroxymethyl)-8,9,10-tris(oxidanyl)-4-oxidanylidene-6-oxa-1-thia-3-azaspiro[4.5]decan-2-ylidene]naphthalene-2-carboxamide

>  <Synonyms>  (53) 


>  <Type>  (53) 
non-polymer

>  <Formula>  (53) 
C19 H18 N2 O7 S

>  <ObservedFormula>  (53) 
C19 S N2 O7

>  <MolecularWeight>  (53) 
418.42

>  <ModifiedDate>  (53) 
2014-08-01

>  <Parent>  (53) 


>  <OneLetterCode>  (53) 


>  <SubcomponentList>  (53) 


>  <AmbiguousFlag>  (53) 
N

>  <InsertionCode>  (53) 


>  <InstanceId>  (53) 
4CTN_M8P_A_998

>  <ChemCompId>  (53) 
M8P

>  <PdbId>  (53) 
4CTN

>  <ResidueNumber>  (53) 
998

>  <InChI>  (53) 
InChI=1S/C19H18N2O7S/c22-8-12-13(23)14(24)15(25)19(28-12)17(27)21-18(29-19)20-16(26)11-6-5-9-3-1-2-4-10(9)7-11/h1-7,12-15,22-25H,8H2,(H,20,21,26,27)/t12-,13-,14+,15-,19-/m1/s1

>  <InChIKey>  (53) 
YJXSIZXIPBKFHB-ULPMNANESA-N

>  <SMILES>  (53) 
c1ccc2cc(ccc2c1)C(=O)/N=C\3/NC(=O)[C@]4(S3)[C@@H]([C@H]([C@@H]([C@H](O4)CO)O)O)O

>  <MissingHeavyAtoms>  (53) 
0

>  <Model>  (53) 
1

>  <AltIds>  (53) 


>  <pKI>  (53) 
5.0

>  <ChemblID>  (53) 
CHEMBL3310895

>  <standardized_canonical_smiles>  (53) 
O=C(/N=C1/NC(=O)[C@]2(O[C@H](CO)[C@@H](O)[C@H](O)[C@H]2O)S1)c1ccc2ccccc2c1

$$$$
4CTO_M7C_A_998
     RDKit          3D

 25 27  0  0  0  0  0  0  0  0999 V2000
   36.3150   25.6070   33.1960 C   0  0  0  0  0  0  0  0  0  0  0  0
   36.8510   26.1890   34.3470 C   0  0  0  0  0  0  0  0  0  0  0  0
   38.2130   26.4700   34.3980 C   0  0  0  0  0  0  0  0  0  0  0  0
   39.0170   26.1660   33.3050 C   0  0  0  0  0  0  0  0  0  0  0  0
   38.4720   25.5760   32.1620 C   0  0  0  0  0  0  0  0  0  0  0  0
   37.1090   25.3120   32.0840 C   0  0  0  0  0  0  0  0  0  0  0  0
   36.5600   24.6900   30.9430 C   0  0  0  0  0  0  0  0  0  0  0  0
   37.2750   24.0040   30.2250 O   0  0  0  0  0  0  0  0  0  0  0  0
   35.2300   24.8340   30.7430 N   0  0  0  0  0  0  0  0  0  0  0  0
   34.6410   24.2040   29.7290 C   0  0  0  0  0  0  0  0  0  0  0  0
   35.3760   23.1760   28.5900 S   0  0  0  0  0  0  0  0  0  0  0  0
   33.3270   24.3150   29.5220 N   0  0  0  0  0  0  0  0  0  0  0  0
   32.8680   23.6420   28.4620 C   0  0  0  0  0  0  0  0  0  0  0  0
   31.6670   23.6990   28.2060 O   0  0  0  0  0  0  0  0  0  0  0  0
   33.7990   22.8290   27.7580 C   0  0  0  0  0  0  0  0  0  0  0  0
   33.5190   21.4160   27.9880 O   0  0  0  0  0  0  0  0  0  0  0  0
   32.3280   20.8900   27.3380 C   0  0  0  0  0  0  0  0  0  0  0  0
   32.1020   19.4290   27.7080 C   0  0  0  0  0  0  0  0  0  0  0  0
   33.1630   18.6640   27.1320 O   0  0  0  0  0  0  0  0  0  0  0  0
   32.4420   21.0870   25.8180 C   0  0  0  0  0  0  0  0  0  0  0  0
   31.2410   20.6610   25.1650 O   0  0  0  0  0  0  0  0  0  0  0  0
   32.6480   22.5620   25.4880 C   0  0  0  0  0  0  0  0  0  0  0  0
   32.8920   22.6710   24.0900 O   0  0  0  0  0  0  0  0  0  0  0  0
   33.8560   23.1500   26.2560 C   0  0  0  0  0  0  0  0  0  0  0  0
   33.9400   24.5850   26.0600 O   0  0  0  0  0  0  0  0  0  0  0  0
  2  1  2  0
  6  1  1  0
  3  2  1  0
  4  3  2  0
  5  4  1  0
  6  5  2  0
  7  6  1  0
  8  7  2  0
  9  7  1  0
 10  9  2  0
 11 10  1  0
 12 10  1  0
 15 11  1  0
 13 12  1  0
 14 13  2  0
 15 13  1  0
 16 15  1  0
 24 15  1  0
 17 16  1  0
 18 17  1  0
 20 17  1  0
 19 18  1  0
 21 20  1  0
 22 20  1  0
 23 22  1  0
 24 22  1  0
 25 24  1  0
A    1
C15
A    2
C14
A    3
C13
A    4
C12
A    5
C11
A    6
C10
A    7
C9
A    8
O8
A    9
N2
A   10
C8
A   11
S1
A   12
N1
A   13
C7
A   14
O7
A   15
C1
A   16
O5
A   17
C5
A   18
C6
A   19
O6
A   20
C4
A   21
O4
A   22
C3
A   23
O3
A   24
C2
A   25
O2
M  END
>  <Id>  (54) 
4CTO_M7C_A_998

>  <ChainId>  (54) 
A

>  <AsymId>  (54) 
B

>  <SeqNum>  (54) 
998

>  <Name>  (54) 
N-[(2Z,5R,7R,8S,9S,10R)-8,9,10-trihydroxy-7-(hydroxymethyl)-4-oxo-6-oxa-1-thia-3-azaspiro[4.5]dec-2-ylidene]benzamide

>  <SystematicName>  (54) 
(NZ)-N-[(6R,7R,8S,9S,10R)-7-(hydroxymethyl)-8,9,10-tris(oxidanyl)-4-oxidanylidene-6-oxa-1-thia-3-azaspiro[4.5]decan-2-ylidene]benzamide

>  <Synonyms>  (54) 


>  <Type>  (54) 
non-polymer

>  <Formula>  (54) 
C15 H16 N2 O7 S

>  <ObservedFormula>  (54) 
C15 S N2 O7

>  <MolecularWeight>  (54) 
368.362

>  <ModifiedDate>  (54) 
2014-08-01

>  <Parent>  (54) 


>  <OneLetterCode>  (54) 


>  <SubcomponentList>  (54) 


>  <AmbiguousFlag>  (54) 
N

>  <InsertionCode>  (54) 


>  <InstanceId>  (54) 
4CTO_M7C_A_998

>  <ChemCompId>  (54) 
M7C

>  <PdbId>  (54) 
4CTO

>  <ResidueNumber>  (54) 
998

>  <InChI>  (54) 
InChI=1S/C15H16N2O7S/c18-6-8-9(19)10(20)11(21)15(24-8)13(23)17-14(25-15)16-12(22)7-4-2-1-3-5-7/h1-5,8-11,18-21H,6H2,(H,16,17,22,23)/t8-,9-,10+,11-,15-/m1/s1

>  <InChIKey>  (54) 
FROKMWINLHSJAI-XKJBLICVSA-N

>  <SMILES>  (54) 
c1ccc(cc1)C(=O)/N=C\2/NC(=O)[C@]3(S2)[C@@H]([C@H]([C@@H]([C@H](O3)CO)O)O)O

>  <MissingHeavyAtoms>  (54) 
0

>  <Model>  (54) 
1

>  <AltIds>  (54) 


>  <pKI>  (54) 
5.05

>  <ChemblID>  (54) 
CHEMBL3310892

>  <standardized_canonical_smiles>  (54) 
O=C(/N=C1/NC(=O)[C@]2(O[C@H](CO)[C@@H](O)[C@H](O)[C@H]2O)S1)c1ccccc1

$$$$
3ZCR_F85_A_998
     RDKit          3D

 27 28  0  0  0  0  0  0  0  0999 V2000
   33.3360   22.9650   28.0110 C   0  0  0  0  0  0  0  0  0  0  0  0
   34.2510   23.6440   28.9560 N   0  0  0  0  0  0  0  0  0  0  0  0
   33.8030   23.1420   26.5590 C   0  0  0  0  0  0  0  0  0  0  0  0
   34.7280   24.7820   30.8540 N   0  0  0  0  0  0  0  0  0  0  0  0
   34.0380   24.5280   26.2770 O   0  0  0  0  0  0  0  0  0  0  0  0
   32.7340   22.5490   25.6170 C   0  0  0  0  0  0  0  0  0  0  0  0
   33.1630   22.6150   24.2570 O   0  0  0  0  0  0  0  0  0  0  0  0
   32.4370   21.0830   25.9960 C   0  0  0  0  0  0  0  0  0  0  0  0
   31.2970   20.6270   25.2650 O   0  0  0  0  0  0  0  0  0  0  0  0
   32.1840   20.9180   27.5160 C   0  0  0  0  0  0  0  0  0  0  0  0
   33.2490   21.5280   28.2920 O   0  0  0  0  0  0  0  0  0  0  0  0
   32.0980   19.4400   27.9500 C   0  0  0  0  0  0  0  0  0  0  0  0
   33.1880   18.7180   27.3700 O   0  0  0  0  0  0  0  0  0  0  0  0
   33.7950   24.1860   30.0850 C   0  0  0  0  0  0  0  0  0  0  0  0
   32.5930   24.1410   30.3750 O   0  0  0  0  0  0  0  0  0  0  0  0
   34.5140   25.3780   32.0390 C   0  0  0  0  0  0  0  0  0  0  0  0
   33.4150   25.4880   32.5860 O   0  0  0  0  0  0  0  0  0  0  0  0
   35.7660   25.9940   32.7030 C   0  0  0  0  0  0  0  0  0  0  0  0
   36.8010   26.5080   31.9120 C   0  0  0  0  0  0  0  0  0  0  0  0
   37.9290   27.0700   32.5130 C   0  0  0  0  0  0  0  0  0  0  0  0
   38.0410   27.1400   33.9110 C   0  0  0  0  0  0  0  0  0  0  0  0
   36.9890   26.6390   34.6940 C   0  0  0  0  0  0  0  0  0  0  0  0
   35.8600   26.0700   34.0940 C   0  0  0  0  0  0  0  0  0  0  0  0
   39.3050   27.7890   34.5580 C   0  0  0  0  0  0  0  0  0  0  0  0
   39.5950   29.0830   33.8000 C   0  0  0  0  0  0  0  0  0  0  0  0
   39.0670   28.1160   36.0380 C   0  0  0  0  0  0  0  0  0  0  0  0
   40.4900   26.8400   34.4290 C   0  0  0  0  0  0  0  0  0  0  0  0
  2  1  1  0
  3  1  1  0
 11  1  1  0
 14  2  1  0
  5  3  1  0
  6  3  1  0
 14  4  1  0
 16  4  1  0
  7  6  1  0
  8  6  1  0
  9  8  1  0
 10  8  1  0
 11 10  1  0
 12 10  1  0
 13 12  1  0
 15 14  2  0
 17 16  2  0
 18 16  1  0
 19 18  2  0
 23 18  1  0
 20 19  1  0
 21 20  2  0
 22 21  1  0
 24 21  1  0
 23 22  2  0
 25 24  1  0
 26 24  1  0
 27 24  1  0
A    1
C1
A    2
N1
A    3
C2
A    4
N2
A    5
O2
A    6
C3
A    7
O3
A    8
C4
A    9
O4
A   10
C5
A   11
O5
A   12
C6
A   13
O6
A   14
C7
A   15
O7
A   16
C8
A   17
O8
A   18
C9
A   19
C10
A   20
C11
A   21
C12
A   22
C13
A   23
C14
A   24
C15
A   25
C16
A   26
C17
A   27
C18
M  END
>  <Id>  (55) 
3ZCR_F85_A_998

>  <ChainId>  (55) 
A

>  <AsymId>  (55) 
D

>  <SeqNum>  (55) 
998

>  <Name>  (55) 
N-[(4-tert-butylbenzoyl)carbamoyl]-beta-D-glucopyranosylamine

>  <SystematicName>  (55) 
4-tert-butyl-N-[[(2R,3R,4S,5S,6R)-6-(hydroxymethyl)-3,4,5-tris(oxidanyl)oxan-2-yl]carbamoyl]benzamide

>  <Synonyms>  (55) 


>  <Type>  (55) 
NON-POLYMER

>  <Formula>  (55) 
C18 H26 N2 O7

>  <ObservedFormula>  (55) 
C18 N2 O7

>  <MolecularWeight>  (55) 
382.408

>  <ModifiedDate>  (55) 
2013-12-06

>  <Parent>  (55) 


>  <OneLetterCode>  (55) 


>  <SubcomponentList>  (55) 


>  <AmbiguousFlag>  (55) 
N

>  <InsertionCode>  (55) 


>  <InstanceId>  (55) 
3ZCR_F85_A_998

>  <ChemCompId>  (55) 
F85

>  <PdbId>  (55) 
3ZCR

>  <ResidueNumber>  (55) 
998

>  <InChI>  (55) 
InChI=1S/C18H26N2O7/c1-18(2,3)10-6-4-9(5-7-10)15(25)19-17(26)20-16-14(24)13(23)12(22)11(8-21)27-16/h4-7,11-14,16,21-24H,8H2,1-3H3,(H2,19,20,25,26)/t11-,12-,13+,14-,16-/m1/s1

>  <InChIKey>  (55) 
VMCPCJUGMOJLFS-XYFZXANASA-N

>  <SMILES>  (55) 
CC(C)(C)c1ccc(cc1)C(=O)NC(=O)N[C@H]2[C@@H]([C@H]([C@@H]([C@H](O2)CO)O)O)O

>  <MissingHeavyAtoms>  (55) 
0

>  <Model>  (55) 
1

>  <AltIds>  (55) 


>  <pKI>  (55) 
6.15

>  <ChemblID>  (55) 
CHEMBL3322301

>  <standardized_canonical_smiles>  (55) 
CC(C)(C)c1ccc(C(=O)NC(=O)N[C@@H]2O[C@H](CO)[C@@H](O)[C@H](O)[C@H]2O)cc1

$$$$
3ZCQ_62N_A_998
     RDKit          3D

 27 28  0  0  0  0  0  0  0  0999 V2000
   33.3620   22.9530   28.0920 C   0  0  0  0  0  0  0  0  0  0  0  0
   40.4400   26.8840   34.4850 F   0  0  0  0  0  0  0  0  0  0  0  0
   34.3000   23.5980   29.0410 N   0  0  0  0  0  0  0  0  0  0  0  0
   33.8200   23.1510   26.6340 C   0  0  0  0  0  0  0  0  0  0  0  0
   39.2070   27.8720   35.9160 F   0  0  0  0  0  0  0  0  0  0  0  0
   34.8120   24.7540   30.9330 N   0  0  0  0  0  0  0  0  0  0  0  0
   34.0610   24.5380   26.3570 O   0  0  0  0  0  0  0  0  0  0  0  0
   32.7520   22.5660   25.6860 C   0  0  0  0  0  0  0  0  0  0  0  0
   39.6710   28.8160   34.0300 F   0  0  0  0  0  0  0  0  0  0  0  0
   33.1890   22.6350   24.3270 O   0  0  0  0  0  0  0  0  0  0  0  0
   32.4490   21.1030   26.0530 C   0  0  0  0  0  0  0  0  0  0  0  0
   31.2970   20.6750   25.3310 O   0  0  0  0  0  0  0  0  0  0  0  0
   32.1970   20.9340   27.5730 C   0  0  0  0  0  0  0  0  0  0  0  0
   33.2550   21.5230   28.3440 O   0  0  0  0  0  0  0  0  0  0  0  0
   32.1090   19.4630   28.0270 C   0  0  0  0  0  0  0  0  0  0  0  0
   33.1690   18.6970   27.4470 O   0  0  0  0  0  0  0  0  0  0  0  0
   33.8630   24.1850   30.1610 C   0  0  0  0  0  0  0  0  0  0  0  0
   32.6620   24.1860   30.4540 O   0  0  0  0  0  0  0  0  0  0  0  0
   34.6000   25.3680   32.1120 C   0  0  0  0  0  0  0  0  0  0  0  0
   33.5010   25.5360   32.6480 O   0  0  0  0  0  0  0  0  0  0  0  0
   35.8530   25.9520   32.7770 C   0  0  0  0  0  0  0  0  0  0  0  0
   36.8420   26.5460   31.9870 C   0  0  0  0  0  0  0  0  0  0  0  0
   37.9780   27.0850   32.5900 C   0  0  0  0  0  0  0  0  0  0  0  0
   38.1280   27.0470   33.9830 C   0  0  0  0  0  0  0  0  0  0  0  0
   37.1250   26.4730   34.7730 C   0  0  0  0  0  0  0  0  0  0  0  0
   35.9900   25.9290   34.1690 C   0  0  0  0  0  0  0  0  0  0  0  0
   39.3920   27.6670   34.6250 C   0  0  0  0  0  0  0  0  0  0  0  0
  3  1  1  0
  4  1  1  0
 14  1  1  0
 27  2  1  0
 17  3  1  0
  7  4  1  0
  8  4  1  0
 27  5  1  0
 17  6  1  0
 19  6  1  0
 10  8  1  0
 11  8  1  0
 27  9  1  0
 12 11  1  0
 13 11  1  0
 14 13  1  0
 15 13  1  0
 16 15  1  0
 18 17  2  0
 20 19  2  0
 21 19  1  0
 22 21  2  0
 26 21  1  0
 23 22  1  0
 24 23  2  0
 25 24  1  0
 27 24  1  0
 26 25  2  0
A    1
C1
A    2
F1
A    3
N1
A    4
C2
A    5
F2
A    6
N2
A    7
O2
A    8
C3
A    9
F3
A   10
O3
A   11
C4
A   12
O4
A   13
C5
A   14
O5
A   15
C6
A   16
O6
A   17
C7
A   18
O7
A   19
C8
A   20
O8
A   21
C9
A   22
C10
A   23
C11
A   24
C12
A   25
C13
A   26
C14
A   27
C15
M  END
>  <Id>  (56) 
3ZCQ_62N_A_998

>  <ChainId>  (56) 
A

>  <AsymId>  (56) 
C

>  <SeqNum>  (56) 
998

>  <Name>  (56) 
N-{[4-(trifluoromethyl)benzoyl]carbamoyl}-beta-D-glucopyranosylamine

>  <SystematicName>  (56) 
N-[[(2R,3R,4S,5S,6R)-6-(hydroxymethyl)-3,4,5-tris(oxidanyl)oxan-2-yl]carbamoyl]-4-(trifluoromethyl)benzamide

>  <Synonyms>  (56) 


>  <Type>  (56) 
NON-POLYMER

>  <Formula>  (56) 
C15 H17 F3 N2 O7

>  <ObservedFormula>  (56) 
C15 F3 N2 O7

>  <MolecularWeight>  (56) 
394.3

>  <ModifiedDate>  (56) 
2013-12-06

>  <Parent>  (56) 


>  <OneLetterCode>  (56) 


>  <SubcomponentList>  (56) 


>  <AmbiguousFlag>  (56) 
N

>  <InsertionCode>  (56) 


>  <InstanceId>  (56) 
3ZCQ_62N_A_998

>  <ChemCompId>  (56) 
62N

>  <PdbId>  (56) 
3ZCQ

>  <ResidueNumber>  (56) 
998

>  <InChI>  (56) 
InChI=1S/C15H17F3N2O7/c16-15(17,18)7-3-1-6(2-4-7)12(25)19-14(26)20-13-11(24)10(23)9(22)8(5-21)27-13/h1-4,8-11,13,21-24H,5H2,(H2,19,20,25,26)/t8-,9-,10+,11-,13-/m1/s1

>  <InChIKey>  (56) 
YLSASLPOLFYUDU-BZNQNGANSA-N

>  <SMILES>  (56) 
c1cc(ccc1C(=O)NC(=O)N[C@H]2[C@@H]([C@H]([C@@H]([C@H](O2)CO)O)O)O)C(F)(F)F

>  <MissingHeavyAtoms>  (56) 
0

>  <Model>  (56) 
1

>  <AltIds>  (56) 


>  <pKI>  (56) 
5.74

>  <ChemblID>  (56) 
CHEMBL3322302

>  <standardized_canonical_smiles>  (56) 
O=C(NC(=O)c1ccc(C(F)(F)F)cc1)N[C@@H]1O[C@H](CO)[C@@H](O)[C@H](O)[C@H]1O

$$$$
2PRJ_NBG_A_998
     RDKit          3D

 15 15  0  0  0  0  0  0  0  0999 V2000
   33.9360   22.7760   27.7630 C   0  0  0  0  0  0  0  0  0  0  0  0
   33.9510   23.0930   26.2730 C   0  0  0  0  0  0  0  0  0  0  0  0
   32.6630   22.5660   25.6160 C   0  0  0  0  0  0  0  0  0  0  0  0
   32.4430   21.1000   25.9790 C   0  0  0  0  0  0  0  0  0  0  0  0
   32.3540   20.9620   27.5390 C   0  0  0  0  0  0  0  0  0  0  0  0
   32.1480   19.5350   27.9330 C   0  0  0  0  0  0  0  0  0  0  0  0
   35.5810   23.6360   29.2910 C   0  0  0  0  0  0  0  0  0  0  0  0
   37.1030   23.8370   29.5690 C   0  0  0  0  0  0  0  0  0  0  0  0
   35.2790   23.0300   28.1470 N   0  0  0  0  0  0  0  0  0  0  0  0
   32.7600   22.6940   24.2070 O   0  0  0  0  0  0  0  0  0  0  0  0
   34.0520   24.4820   26.0970 O   0  0  0  0  0  0  0  0  0  0  0  0
   31.2830   20.6510   25.3480 O   0  0  0  0  0  0  0  0  0  0  0  0
   33.5820   21.3990   28.1090 O   0  0  0  0  0  0  0  0  0  0  0  0
   33.2120   18.7960   27.3760 O   0  0  0  0  0  0  0  0  0  0  0  0
   34.7260   24.0190   30.0990 O   0  0  0  0  0  0  0  0  0  0  0  0
  2  1  1  0
  9  1  1  0
 13  1  1  0
  3  2  1  0
 11  2  1  0
  4  3  1  0
 10  3  1  0
  5  4  1  0
 12  4  1  0
  6  5  1  0
 13  5  1  0
 14  6  1  0
  8  7  1  0
  9  7  1  0
 15  7  2  0
A    1
C1
A    2
C2
A    3
C3
A    4
C4
A    5
C5
A    6
C6
A    7
C7
A    8
C8
A    9
N1
A   10
O3
A   11
O2
A   12
O4
A   13
O5
A   14
O6
A   15
O7
M  END
>  <Id>  (57) 
2PRJ_NBG_A_998

>  <ChainId>  (57) 
A

>  <AsymId>  (57) 
B

>  <SeqNum>  (57) 
998

>  <Name>  (57) 
1-N-ACETYL-BETA-D-GLUCOSAMINE

>  <SystematicName>  (57) 
N-[(2R,3R,4S,5S,6R)-3,4,5-trihydroxy-6-(hydroxymethyl)oxan-2-yl]ethanamide

>  <Synonyms>  (57) 


>  <Type>  (57) 
D-SACCHARIDE

>  <Formula>  (57) 
C8 H15 N O6

>  <ObservedFormula>  (57) 
C8 N O6

>  <MolecularWeight>  (57) 
221.208

>  <ModifiedDate>  (57) 
2011-06-04

>  <Parent>  (57) 


>  <OneLetterCode>  (57) 


>  <SubcomponentList>  (57) 


>  <AmbiguousFlag>  (57) 
N

>  <InsertionCode>  (57) 


>  <InstanceId>  (57) 
2PRJ_NBG_A_998

>  <ChemCompId>  (57) 
NBG

>  <PdbId>  (57) 
2PRJ

>  <ResidueNumber>  (57) 
998

>  <InChI>  (57) 
InChI=1S/C8H15NO6/c1-3(11)9-8-7(14)6(13)5(12)4(2-10)15-8/h4-8,10,12-14H,2H2,1H3,(H,9,11)/t4-,5-,6+,7-,8-/m1/s1

>  <InChIKey>  (57) 
IBONACLSSOLHFU-JAJWTYFOSA-N

>  <SMILES>  (57) 
CC(=O)N[C@H]1[C@@H]([C@H]([C@@H]([C@H](O1)CO)O)O)O

>  <MissingHeavyAtoms>  (57) 
0

>  <Model>  (57) 
1

>  <AltIds>  (57) 


>  <pKI>  (57) 
4.49

>  <ChemblID>  (57) 
CHEMBL335315

>  <standardized_canonical_smiles>  (57) 
CC(=O)N[C@@H]1O[C@H](CO)[C@@H](O)[C@H](O)[C@H]1O

$$$$
1WW2_NBG_A_998
     RDKit          3D

 15 15  0  0  0  0  0  0  0  0999 V2000
   34.1330   22.7130   27.6500 C   0  0  0  0  0  0  0  0  0  0  0  0
   34.1600   22.9440   26.1440 C   0  0  0  0  0  0  0  0  0  0  0  0
   32.7650   22.6510   25.6120 C   0  0  0  0  0  0  0  0  0  0  0  0
   32.5030   21.1760   25.9380 C   0  0  0  0  0  0  0  0  0  0  0  0
   32.5370   20.9630   27.4630 C   0  0  0  0  0  0  0  0  0  0  0  0
   32.3050   19.5210   27.8640 C   0  0  0  0  0  0  0  0  0  0  0  0
   35.4100   23.6950   29.4670 C   0  0  0  0  0  0  0  0  0  0  0  0
   36.8020   24.0550   29.9750 C   0  0  0  0  0  0  0  0  0  0  0  0
   35.3870   23.1550   28.2540 N   0  0  0  0  0  0  0  0  0  0  0  0
   32.8080   22.7990   24.1980 O   0  0  0  0  0  0  0  0  0  0  0  0
   34.3780   24.3410   25.9250 O   0  0  0  0  0  0  0  0  0  0  0  0
   31.2700   20.7460   25.3830 O   0  0  0  0  0  0  0  0  0  0  0  0
   33.8370   21.3490   27.9740 O   0  0  0  0  0  0  0  0  0  0  0  0
   33.3290   18.6810   27.3570 O   0  0  0  0  0  0  0  0  0  0  0  0
   34.4200   23.9510   30.1400 O   0  0  0  0  0  0  0  0  0  0  0  0
  2  1  1  0
  9  1  1  0
 13  1  1  0
  3  2  1  0
 11  2  1  0
  4  3  1  0
 10  3  1  0
  5  4  1  0
 12  4  1  0
  6  5  1  0
 13  5  1  0
 14  6  1  0
  8  7  1  0
  9  7  1  0
 15  7  2  0
A    1
C1
A    2
C2
A    3
C3
A    4
C4
A    5
C5
A    6
C6
A    7
C7
A    8
C8
A    9
N1
A   10
O3
A   11
O2
A   12
O4
A   13
O5
A   14
O6
A   15
O7
M  END
>  <Id>  (58) 
1WW2_NBG_A_998

>  <ChainId>  (58) 
A

>  <AsymId>  (58) 
B

>  <SeqNum>  (58) 
998

>  <Name>  (58) 
1-N-ACETYL-BETA-D-GLUCOSAMINE

>  <SystematicName>  (58) 
N-[(2R,3R,4S,5S,6R)-3,4,5-trihydroxy-6-(hydroxymethyl)oxan-2-yl]ethanamide

>  <Synonyms>  (58) 


>  <Type>  (58) 
D-SACCHARIDE

>  <Formula>  (58) 
C8 H15 N O6

>  <ObservedFormula>  (58) 
C8 N O6

>  <MolecularWeight>  (58) 
221.208

>  <ModifiedDate>  (58) 
2011-06-04

>  <Parent>  (58) 


>  <OneLetterCode>  (58) 


>  <SubcomponentList>  (58) 


>  <AmbiguousFlag>  (58) 
N

>  <InsertionCode>  (58) 


>  <InstanceId>  (58) 
1WW2_NBG_A_998

>  <ChemCompId>  (58) 
NBG

>  <PdbId>  (58) 
1WW2

>  <ResidueNumber>  (58) 
998

>  <InChI>  (58) 
InChI=1S/C8H15NO6/c1-3(11)9-8-7(14)6(13)5(12)4(2-10)15-8/h4-8,10,12-14H,2H2,1H3,(H,9,11)/t4-,5-,6+,7-,8-/m1/s1

>  <InChIKey>  (58) 
IBONACLSSOLHFU-JAJWTYFOSA-N

>  <SMILES>  (58) 
CC(=O)N[C@H]1[C@@H]([C@H]([C@@H]([C@H](O1)CO)O)O)O

>  <MissingHeavyAtoms>  (58) 
0

>  <Model>  (58) 
1

>  <AltIds>  (58) 


>  <pKI>  (58) 
4.49

>  <ChemblID>  (58) 
CHEMBL335315

>  <standardized_canonical_smiles>  (58) 
CC(=O)N[C@@H]1O[C@H](CO)[C@@H](O)[C@H](O)[C@H]1O

$$$$
3CUT_179_A_998
     RDKit          3D

 27 29  0  0  0  0  0  0  0  0999 V2000
   37.2930   25.8910   32.5080 C   0  0  0  0  0  0  0  0  0  0  0  0
   38.1030   26.4110   33.5150 C   0  0  0  0  0  0  0  0  0  0  0  0
   39.4170   26.7850   33.2240 C   0  0  0  0  0  0  0  0  0  0  0  0
   40.2320   27.2970   34.2350 C   0  0  0  0  0  0  0  0  0  0  0  0
   39.7280   27.4450   35.5300 C   0  0  0  0  0  0  0  0  0  0  0  0
   38.4150   27.0720   35.8270 C   0  0  0  0  0  0  0  0  0  0  0  0
   37.5980   26.5550   34.8180 C   0  0  0  0  0  0  0  0  0  0  0  0
   36.2830   26.1760   35.1100 C   0  0  0  0  0  0  0  0  0  0  0  0
   35.4740   25.6590   34.0950 C   0  0  0  0  0  0  0  0  0  0  0  0
   35.9710   25.5200   32.7940 C   0  0  0  0  0  0  0  0  0  0  0  0
   35.1510   25.0090   31.8700 N   0  0  0  0  0  0  0  0  0  0  0  0
   35.4790   24.4930   30.6760 C   0  0  0  0  0  0  0  0  0  0  0  0
   36.6200   24.4300   30.2070 O   0  0  0  0  0  0  0  0  0  0  0  0
   34.3230   23.9470   29.8260 C   0  0  0  0  0  0  0  0  0  0  0  0
   33.1730   23.9990   30.2700 O   0  0  0  0  0  0  0  0  0  0  0  0
   34.6170   23.4460   28.6340 N   0  0  0  0  0  0  0  0  0  0  0  0
   33.5320   22.9140   27.7920 C   0  0  0  0  0  0  0  0  0  0  0  0
   33.3920   21.4930   28.1000 O   0  0  0  0  0  0  0  0  0  0  0  0
   32.2340   20.9540   27.4500 C   0  0  0  0  0  0  0  0  0  0  0  0
   32.0900   19.5120   27.9320 C   0  0  0  0  0  0  0  0  0  0  0  0
   33.2120   18.7370   27.4820 O   0  0  0  0  0  0  0  0  0  0  0  0
   32.4010   21.0600   25.9130 C   0  0  0  0  0  0  0  0  0  0  0  0
   31.2260   20.5740   25.2930 O   0  0  0  0  0  0  0  0  0  0  0  0
   32.6770   22.5110   25.4550 C   0  0  0  0  0  0  0  0  0  0  0  0
   33.0130   22.5640   24.0630 O   0  0  0  0  0  0  0  0  0  0  0  0
   33.8150   23.1250   26.2930 C   0  0  0  0  0  0  0  0  0  0  0  0
   33.9870   24.5180   26.0030 O   0  0  0  0  0  0  0  0  0  0  0  0
  2  1  2  0
 10  1  1  0
  3  2  1  0
  7  2  1  0
  4  3  2  0
  5  4  1  0
  6  5  2  0
  7  6  1  0
  8  7  2  0
  9  8  1  0
 10  9  2  0
 11 10  1  0
 12 11  1  0
 13 12  2  0
 14 12  1  0
 15 14  2  0
 16 14  1  0
 17 16  1  0
 18 17  1  0
 26 17  1  0
 19 18  1  0
 20 19  1  0
 22 19  1  0
 21 20  1  0
 23 22  1  0
 24 22  1  0
 25 24  1  0
 26 24  1  0
 27 26  1  0
A    1
C18
A    2
C17
A    3
C16
A    4
C15
A    5
C14
A    6
C13
A    7
C12
A    8
C11
A    9
C10
A   10
C9
A   11
N2
A   12
C8
A   13
O8
A   14
C7
A   15
O7
A   16
N1
A   17
C1
A   18
O5
A   19
C5
A   20
C6
A   21
O6
A   22
C4
A   23
O4
A   24
C3
A   25
O3
A   26
C2
A   27
O2
M  END
>  <Id>  (59) 
3CUT_179_A_998

>  <ChainId>  (59) 
A

>  <AsymId>  (59) 
B

>  <SeqNum>  (59) 
998

>  <Name>  (59) 
N-[(naphthalen-2-ylamino)(oxo)acetyl]-beta-D-glucopyranosylamine

>  <SystematicName>  (59) 
N-naphthalen-2-yl-N'-[(2R,3R,4S,5S,6R)-3,4,5-trihydroxy-6-(hydroxymethyl)oxan-2-yl]ethanediamide

>  <Synonyms>  (59) 


>  <Type>  (59) 
NON-POLYMER

>  <Formula>  (59) 
C18 H20 N2 O7

>  <ObservedFormula>  (59) 
C18 N2 O7

>  <MolecularWeight>  (59) 
376.361

>  <ModifiedDate>  (59) 
2011-06-04

>  <Parent>  (59) 


>  <OneLetterCode>  (59) 


>  <SubcomponentList>  (59) 


>  <AmbiguousFlag>  (59) 
N

>  <InsertionCode>  (59) 


>  <InstanceId>  (59) 
3CUT_179_A_998

>  <ChemCompId>  (59) 
179

>  <PdbId>  (59) 
3CUT

>  <ResidueNumber>  (59) 
998

>  <InChI>  (59) 
InChI=1S/C18H20N2O7/c21-8-12-13(22)14(23)15(24)18(27-12)20-17(26)16(25)19-11-6-5-9-3-1-2-4-10(9)7-11/h1-7,12-15,18,21-24H,8H2,(H,19,25)(H,20,26)/t12-,13-,14+,15-,18-/m1/s1

>  <InChIKey>  (59) 
WDRIXCWRSIXUDT-VPKNTQAGSA-N

>  <SMILES>  (59) 
c1ccc2cc(ccc2c1)NC(=O)C(=O)N[C@H]3[C@@H]([C@H]([C@@H]([C@H](O3)CO)O)O)O

>  <MissingHeavyAtoms>  (59) 
0

>  <Model>  (59) 
1

>  <AltIds>  (59) 


>  <pKI>  (59) 
4.25

>  <ChemblID>  (59) 
CHEMBL1229682

>  <standardized_canonical_smiles>  (59) 
O=C(Nc1ccc2ccccc2c1)C(=O)N[C@@H]1O[C@H](CO)[C@@H](O)[C@H](O)[C@H]1O

$$$$
3ZCU_T68_A_998
     RDKit          3D

 23 24  0  0  0  0  0  0  0  0999 V2000
   33.1410   22.9510   28.0640 C   0  0  0  0  0  0  0  0  0  0  0  0
   34.0630   23.5460   29.0540 N   0  0  0  0  0  0  0  0  0  0  0  0
   33.6090   23.1530   26.6150 C   0  0  0  0  0  0  0  0  0  0  0  0
   34.5040   24.5770   31.0230 N   0  0  0  0  0  0  0  0  0  0  0  0
   33.8300   24.5470   26.3550 O   0  0  0  0  0  0  0  0  0  0  0  0
   32.5650   22.5380   25.6560 C   0  0  0  0  0  0  0  0  0  0  0  0
   36.6420   25.8100   32.3320 N   0  0  0  0  0  0  0  0  0  0  0  0
   32.9980   22.6190   24.2940 O   0  0  0  0  0  0  0  0  0  0  0  0
   32.2980   21.0640   26.0190 C   0  0  0  0  0  0  0  0  0  0  0  0
   31.1640   20.6070   25.2850 O   0  0  0  0  0  0  0  0  0  0  0  0
   32.0480   20.8780   27.5390 C   0  0  0  0  0  0  0  0  0  0  0  0
   33.0780   21.5180   28.3220 O   0  0  0  0  0  0  0  0  0  0  0  0
   32.0060   19.4070   27.9930 C   0  0  0  0  0  0  0  0  0  0  0  0
   33.0880   18.6700   27.4040 O   0  0  0  0  0  0  0  0  0  0  0  0
   33.5860   24.0760   30.1830 C   0  0  0  0  0  0  0  0  0  0  0  0
   32.3730   24.1130   30.4200 O   0  0  0  0  0  0  0  0  0  0  0  0
   34.2320   25.1690   32.1990 C   0  0  0  0  0  0  0  0  0  0  0  0
   33.1040   25.3380   32.6700 O   0  0  0  0  0  0  0  0  0  0  0  0
   35.4730   25.6280   32.9770 C   0  0  0  0  0  0  0  0  0  0  0  0
   35.3860   25.8490   34.3550 C   0  0  0  0  0  0  0  0  0  0  0  0
   36.5190   26.2600   35.0540 C   0  0  0  0  0  0  0  0  0  0  0  0
   37.7110   26.4360   34.3490 C   0  0  0  0  0  0  0  0  0  0  0  0
   37.7420   26.1970   32.9730 C   0  0  0  0  0  0  0  0  0  0  0  0
  2  1  1  0
  3  1  1  0
 12  1  1  0
 15  2  1  0
  5  3  1  0
  6  3  1  0
 15  4  1  0
 17  4  1  0
  8  6  1  0
  9  6  1  0
 19  7  2  0
 23  7  1  0
 10  9  1  0
 11  9  1  0
 12 11  1  0
 13 11  1  0
 14 13  1  0
 16 15  2  0
 18 17  2  0
 19 17  1  0
 20 19  1  0
 21 20  2  0
 22 21  1  0
 23 22  2  0
A    1
C1
A    2
N1
A    3
C2
A    4
N2
A    5
O2
A    6
C3
A    7
N3
A    8
O3
A    9
C4
A   10
O4
A   11
C5
A   12
O5
A   13
C6
A   14
O6
A   15
C7
A   16
O7
A   17
C8
A   18
O8
A   19
C9
A   20
C10
A   21
C11
A   22
C12
A   23
C13
M  END
>  <Id>  (60) 
3ZCU_T68_A_998

>  <ChainId>  (60) 
A

>  <AsymId>  (60) 
B

>  <SeqNum>  (60) 
998

>  <Name>  (60) 
N-[(pyridin-2-ylcarbonyl)carbamoyl]-beta-D-glucopyranosylamine

>  <SystematicName>  (60) 
N-[[(2R,3R,4S,5S,6R)-6-(hydroxymethyl)-3,4,5-tris(oxidanyl)oxan-2-yl]carbamoyl]pyridine-2-carboxamide

>  <Synonyms>  (60) 


>  <Type>  (60) 
NON-POLYMER

>  <Formula>  (60) 
C13 H17 N3 O7

>  <ObservedFormula>  (60) 
C13 N3 O7

>  <MolecularWeight>  (60) 
327.29

>  <ModifiedDate>  (60) 
2013-12-06

>  <Parent>  (60) 


>  <OneLetterCode>  (60) 


>  <SubcomponentList>  (60) 


>  <AmbiguousFlag>  (60) 
N

>  <InsertionCode>  (60) 


>  <InstanceId>  (60) 
3ZCU_T68_A_998

>  <ChemCompId>  (60) 
T68

>  <PdbId>  (60) 
3ZCU

>  <ResidueNumber>  (60) 
998

>  <InChI>  (60) 
InChI=1S/C13H17N3O7/c17-5-7-8(18)9(19)10(20)12(23-7)16-13(22)15-11(21)6-3-1-2-4-14-6/h1-4,7-10,12,17-20H,5H2,(H2,15,16,21,22)/t7-,8-,9+,10-,12-/m1/s1

>  <InChIKey>  (60) 
CGKGUAIYBUNWNI-WSOSLHDDSA-N

>  <SMILES>  (60) 
c1ccnc(c1)C(=O)NC(=O)N[C@H]2[C@@H]([C@H]([C@@H]([C@H](O2)CO)O)O)O

>  <MissingHeavyAtoms>  (60) 
0

>  <Model>  (60) 
1

>  <AltIds>  (60) 


>  <pKI>  (60) 
4.17

>  <ChemblID>  (60) 
CHEMBL3322308

>  <standardized_canonical_smiles>  (60) 
O=C(NC(=O)c1ccccn1)N[C@@H]1O[C@H](CO)[C@@H](O)[C@H](O)[C@H]1O

$$$$
3CUW_445_A_998
     RDKit          3D

 23 24  0  0  0  0  0  0  0  0999 V2000
   37.4400   25.6230   32.4290 C   0  0  0  0  0  0  0  0  0  0  0  0
   38.2610   26.1460   33.4330 C   0  0  0  0  0  0  0  0  0  0  0  0
   37.7560   26.3730   34.7130 C   0  0  0  0  0  0  0  0  0  0  0  0
   36.4220   26.0760   34.9970 C   0  0  0  0  0  0  0  0  0  0  0  0
   35.6010   25.5570   33.9920 C   0  0  0  0  0  0  0  0  0  0  0  0
   36.1010   25.3260   32.7070 C   0  0  0  0  0  0  0  0  0  0  0  0
   35.2550   24.8270   31.7900 N   0  0  0  0  0  0  0  0  0  0  0  0
   35.5490   24.2870   30.6020 C   0  0  0  0  0  0  0  0  0  0  0  0
   36.6770   24.1440   30.1250 O   0  0  0  0  0  0  0  0  0  0  0  0
   34.3650   23.8050   29.7700 C   0  0  0  0  0  0  0  0  0  0  0  0
   33.2330   23.9350   30.2330 O   0  0  0  0  0  0  0  0  0  0  0  0
   34.6040   23.2660   28.5810 N   0  0  0  0  0  0  0  0  0  0  0  0
   33.4610   22.7950   27.7760 C   0  0  0  0  0  0  0  0  0  0  0  0
   33.3410   21.3780   28.0020 O   0  0  0  0  0  0  0  0  0  0  0  0
   32.1540   20.8520   27.3590 C   0  0  0  0  0  0  0  0  0  0  0  0
   31.9990   19.3880   27.7830 C   0  0  0  0  0  0  0  0  0  0  0  0
   33.0700   18.6160   27.2200 O   0  0  0  0  0  0  0  0  0  0  0  0
   32.2630   21.0250   25.8300 C   0  0  0  0  0  0  0  0  0  0  0  0
   31.0550   20.5790   25.2260 O   0  0  0  0  0  0  0  0  0  0  0  0
   32.5180   22.5000   25.4530 C   0  0  0  0  0  0  0  0  0  0  0  0
   32.8240   22.5960   24.0640 O   0  0  0  0  0  0  0  0  0  0  0  0
   33.6780   23.0880   26.2810 C   0  0  0  0  0  0  0  0  0  0  0  0
   33.8070   24.5020   26.0840 O   0  0  0  0  0  0  0  0  0  0  0  0
  2  1  2  0
  6  1  1  0
  3  2  1  0
  4  3  2  0
  5  4  1  0
  6  5  2  0
  7  6  1  0
  8  7  1  0
  9  8  2  0
 10  8  1  0
 11 10  2  0
 12 10  1  0
 13 12  1  0
 14 13  1  0
 22 13  1  0
 15 14  1  0
 16 15  1  0
 18 15  1  0
 17 16  1  0
 19 18  1  0
 20 18  1  0
 21 20  1  0
 22 20  1  0
 23 22  1  0
A    1
C10
A    2
C11
A    3
C12
A    4
C13
A    5
C14
A    6
C9
A    7
N2
A    8
C8
A    9
O8
A   10
C7
A   11
O7
A   12
N1
A   13
C1
A   14
O5
A   15
C5
A   16
C6
A   17
O6
A   18
C4
A   19
O4
A   20
C3
A   21
O3
A   22
C2
A   23
O2
M  END
>  <Id>  (61) 
3CUW_445_A_998

>  <ChainId>  (61) 
A

>  <AsymId>  (61) 
C

>  <SeqNum>  (61) 
998

>  <Name>  (61) 
N-[oxo(phenylamino)acetyl]-beta-D-glucopyranosylamine

>  <SystematicName>  (61) 
N-phenyl-N'-[(2R,3R,4S,5S,6R)-3,4,5-trihydroxy-6-(hydroxymethyl)oxan-2-yl]ethanediamide

>  <Synonyms>  (61) 


>  <Type>  (61) 
NON-POLYMER

>  <Formula>  (61) 
C14 H18 N2 O7

>  <ObservedFormula>  (61) 
C14 N2 O7

>  <MolecularWeight>  (61) 
326.302

>  <ModifiedDate>  (61) 
2011-06-04

>  <Parent>  (61) 


>  <OneLetterCode>  (61) 


>  <SubcomponentList>  (61) 


>  <AmbiguousFlag>  (61) 
N

>  <InsertionCode>  (61) 


>  <InstanceId>  (61) 
3CUW_445_A_998

>  <ChemCompId>  (61) 
445

>  <PdbId>  (61) 
3CUW

>  <ResidueNumber>  (61) 
998

>  <InChI>  (61) 
InChI=1S/C14H18N2O7/c17-6-8-9(18)10(19)11(20)14(23-8)16-13(22)12(21)15-7-4-2-1-3-5-7/h1-5,8-11,14,17-20H,6H2,(H,15,21)(H,16,22)/t8-,9-,10+,11-,14-/m1/s1

>  <InChIKey>  (61) 
MWGDULHTYQLGFY-YNXVLUOKSA-N

>  <SMILES>  (61) 
c1ccc(cc1)NC(=O)C(=O)N[C@H]2[C@@H]([C@H]([C@@H]([C@H](O2)CO)O)O)O

>  <MissingHeavyAtoms>  (61) 
0

>  <Model>  (61) 
1

>  <AltIds>  (61) 


>  <pKI>  (61) 
4.0

>  <ChemblID>  (61) 
CHEMBL1230224

>  <standardized_canonical_smiles>  (61) 
O=C(Nc1ccccc1)C(=O)N[C@@H]1O[C@H](CO)[C@@H](O)[C@H](O)[C@H]1O

$$$$
4MI6_26V_A_901
     RDKit          3D

 27 29  0  0  0  0  0  0  0  0999 V2000
   37.1360   26.3190   33.9310 C   0  0  0  0  0  0  0  0  0  0  0  0
   37.4140   27.0580   35.1110 C   0  0  0  0  0  0  0  0  0  0  0  0
   36.4290   27.0990   36.1010 C   0  0  0  0  0  0  0  0  0  0  0  0
   36.6410   28.2250   37.1380 C   0  0  0  0  0  0  0  0  0  0  0  0
   38.0910   28.3100   37.5930 C   0  0  0  0  0  0  0  0  0  0  0  0
   39.0440   28.4650   36.4080 C   0  0  0  0  0  0  0  0  0  0  0  0
   38.6610   27.6990   35.2790 C   0  0  0  0  0  0  0  0  0  0  0  0
   39.5990   27.6050   34.2650 C   0  0  0  0  0  0  0  0  0  0  0  0
   39.3180   26.8820   33.1080 C   0  0  0  0  0  0  0  0  0  0  0  0
   38.1100   26.2000   32.9250 C   0  0  0  0  0  0  0  0  0  0  0  0
   37.9400   25.5730   31.6760 C   0  0  0  0  0  0  0  0  0  0  0  0
   37.0490   24.3490   31.6030 C   0  0  0  0  0  0  0  0  0  0  0  0
   36.8540   24.1000   30.0660 C   0  0  0  0  0  0  0  0  0  0  0  0
   35.4060   23.8310   29.5820 C   0  0  0  0  0  0  0  0  0  0  0  0
   34.4020   24.1780   30.2030 O   0  0  0  0  0  0  0  0  0  0  0  0
   35.3430   23.2230   28.4000 N   0  0  0  0  0  0  0  0  0  0  0  0
   34.0690   22.8610   27.7810 C   0  0  0  0  0  0  0  0  0  0  0  0
   33.8150   21.4550   28.0440 O   0  0  0  0  0  0  0  0  0  0  0  0
   32.5890   20.9920   27.4480 C   0  0  0  0  0  0  0  0  0  0  0  0
   32.3380   19.5490   27.8490 C   0  0  0  0  0  0  0  0  0  0  0  0
   33.3850   18.7530   27.2650 O   0  0  0  0  0  0  0  0  0  0  0  0
   32.6730   21.1660   25.9100 C   0  0  0  0  0  0  0  0  0  0  0  0
   31.4380   20.7280   25.2900 O   0  0  0  0  0  0  0  0  0  0  0  0
   32.9380   22.6210   25.5410 C   0  0  0  0  0  0  0  0  0  0  0  0
   33.1430   22.7120   24.1290 O   0  0  0  0  0  0  0  0  0  0  0  0
   34.1950   23.1390   26.2800 C   0  0  0  0  0  0  0  0  0  0  0  0
   34.3620   24.5680   26.0800 O   0  0  0  0  0  0  0  0  0  0  0  0
  2  1  2  0
 10  1  1  0
  3  2  1  0
  7  2  1  0
  4  3  1  0
  5  4  1  0
  6  5  1  0
  7  6  1  0
  8  7  2  0
  9  8  1  0
 10  9  2  0
 11 10  1  0
 12 11  1  0
 13 12  1  0
 14 13  1  0
 15 14  2  0
 16 14  1  0
 17 16  1  0
 18 17  1  0
 26 17  1  0
 19 18  1  0
 20 19  1  0
 22 19  1  0
 21 20  1  0
 23 22  1  0
 24 22  1  0
 25 24  1  0
 26 24  1  0
 27 26  1  0
A    1
C12
A    2
C11
A    3
C16
A    4
C15
A    5
C14
A    6
C13
A    7
C10
A    8
C9
A    9
C8
A   10
C7
A   11
C6
A   12
C5
A   13
C4
A   14
C2
A   15
O3
A   16
N1
A   17
C1'
A   18
O5'
A   19
C5'
A   20
C6'
A   21
O6'
A   22
C4'
A   23
O4'
A   24
C3'
A   25
O3'
A   26
C2'
A   27
O2'
M  END
>  <Id>  (62) 
4MI6_26V_A_901

>  <ChainId>  (62) 
A

>  <AsymId>  (62) 
B

>  <SeqNum>  (62) 
901

>  <Name>  (62) 
N-[4-(5,6,7,8-tetrahydronaphthalen-2-yl)butanoyl]-beta-D-glucopyranosylamine

>  <SystematicName>  (62) 
N-[(2R,3R,4S,5S,6R)-6-(hydroxymethyl)-3,4,5-tris(oxidanyl)oxan-2-yl]-4-(5,6,7,8-tetrahydronaphthalen-2-yl)butanamide

>  <Synonyms>  (62) 


>  <Type>  (62) 
SACCHARIDE

>  <Formula>  (62) 
C20 H29 N O6

>  <ObservedFormula>  (62) 
C20 N O6

>  <MolecularWeight>  (62) 
379.447

>  <ModifiedDate>  (62) 
2014-07-18

>  <Parent>  (62) 


>  <OneLetterCode>  (62) 


>  <SubcomponentList>  (62) 


>  <AmbiguousFlag>  (62) 
N

>  <InsertionCode>  (62) 


>  <InstanceId>  (62) 
4MI6_26V_A_901

>  <ChemCompId>  (62) 
26V

>  <PdbId>  (62) 
4MI6

>  <ResidueNumber>  (62) 
901

>  <InChI>  (62) 
InChI=1S/C20H29NO6/c22-11-15-17(24)18(25)19(26)20(27-15)21-16(23)7-3-4-12-8-9-13-5-1-2-6-14(13)10-12/h8-10,15,17-20,22,24-26H,1-7,11H2,(H,21,23)/t15-,17-,18+,19-,20-/m1/s1

>  <InChIKey>  (62) 
XAFXSLABZKEYPA-XIKSMUEASA-N

>  <SMILES>  (62) 
c1cc2c(cc1CCCC(=O)N[C@H]3[C@@H]([C@H]([C@@H]([C@H](O3)CO)O)O)O)CCCC2

>  <MissingHeavyAtoms>  (62) 
0

>  <Model>  (62) 
1

>  <AltIds>  (62) 


>  <pKI>  (62) 
4.31

>  <ChemblID>  (62) 
CHEMBL3322333

>  <standardized_canonical_smiles>  (62) 
O=C(CCCc1ccc2c(c1)CCCC2)N[C@@H]1O[C@H](CO)[C@@H](O)[C@H](O)[C@H]1O

$$$$
4MHS_26Q_A_901
     RDKit          3D

 28 30  0  0  0  0  0  0  0  0999 V2000
   38.1490   28.0520   37.2000 C   0  0  0  0  0  0  0  0  0  0  0  0
   39.0380   28.5470   38.1600 C   0  0  0  0  0  0  0  0  0  0  0  0
   40.3370   28.0360   38.2380 C   0  0  0  0  0  0  0  0  0  0  0  0
   40.7530   27.0220   37.3690 C   0  0  0  0  0  0  0  0  0  0  0  0
   39.8630   26.5460   36.4010 C   0  0  0  0  0  0  0  0  0  0  0  0
   38.5510   27.0460   36.3050 C   0  0  0  0  0  0  0  0  0  0  0  0
   37.6530   26.5600   35.3230 C   0  0  0  0  0  0  0  0  0  0  0  0
   38.0810   26.3290   33.9980 C   0  0  0  0  0  0  0  0  0  0  0  0
   37.2060   25.8470   33.0170 C   0  0  0  0  0  0  0  0  0  0  0  0
   36.3120   26.3020   35.6460 C   0  0  0  0  0  0  0  0  0  0  0  0
   35.4300   25.8280   34.6710 C   0  0  0  0  0  0  0  0  0  0  0  0
   35.8580   25.5990   33.3510 C   0  0  0  0  0  0  0  0  0  0  0  0
   34.8880   25.1320   32.4500 C   0  0  0  0  0  0  0  0  0  0  0  0
   35.2170   24.5630   31.0660 C   0  0  0  0  0  0  0  0  0  0  0  0
   34.0760   24.0340   30.1710 C   0  0  0  0  0  0  0  0  0  0  0  0
   32.8880   24.1030   30.5250 O   0  0  0  0  0  0  0  0  0  0  0  0
   34.4870   23.5530   28.9860 N   0  0  0  0  0  0  0  0  0  0  0  0
   33.5370   22.9850   28.0190 C   0  0  0  0  0  0  0  0  0  0  0  0
   33.4570   21.5530   28.3160 O   0  0  0  0  0  0  0  0  0  0  0  0
   32.3840   20.9560   27.5600 C   0  0  0  0  0  0  0  0  0  0  0  0
   32.2320   19.5040   27.9530 C   0  0  0  0  0  0  0  0  0  0  0  0
   33.2910   18.8020   27.3070 O   0  0  0  0  0  0  0  0  0  0  0  0
   32.6030   21.1240   26.0040 C   0  0  0  0  0  0  0  0  0  0  0  0
   31.4330   20.6620   25.3100 O   0  0  0  0  0  0  0  0  0  0  0  0
   32.8960   22.5870   25.6160 C   0  0  0  0  0  0  0  0  0  0  0  0
   33.2860   22.6240   24.2300 O   0  0  0  0  0  0  0  0  0  0  0  0
   34.0090   23.1690   26.5630 C   0  0  0  0  0  0  0  0  0  0  0  0
   34.2710   24.5520   26.2850 O   0  0  0  0  0  0  0  0  0  0  0  0
  2  1  2  0
  6  1  1  0
  3  2  1  0
  4  3  2  0
  5  4  1  0
  6  5  2  0
  7  6  1  0
  8  7  2  0
 10  7  1  0
  9  8  1  0
 12  9  2  0
 11 10  2  0
 12 11  1  0
 13 12  1  0
 14 13  2  0
 15 14  1  0
 16 15  2  0
 17 15  1  0
 18 17  1  0
 19 18  1  0
 27 18  1  0
 20 19  1  0
 21 20  1  0
 23 20  1  0
 22 21  1  0
 24 23  1  0
 25 23  1  0
 26 25  1  0
 27 25  1  0
 28 27  1  0
A    1
C17
A    2
C16
A    3
C15
A    4
C14
A    5
C13
A    6
C12
A    7
C9
A    8
C8
A    9
C7
A   10
C10
A   11
C11
A   12
C6
A   13
C5
A   14
C4
A   15
C2
A   16
O3
A   17
N1
A   18
C1'
A   19
O5'
A   20
C5'
A   21
C6'
A   22
O6'
A   23
C4'
A   24
O4'
A   25
C3'
A   26
O3'
A   27
C2'
A   28
O2'
M  END
>  <Id>  (63) 
4MHS_26Q_A_901

>  <ChainId>  (63) 
A

>  <AsymId>  (63) 
B

>  <SeqNum>  (63) 
901

>  <Name>  (63) 
N-[(2E)-3-(biphenyl-4-yl)prop-2-enoyl]-beta-D-glucopyranosylamine

>  <SystematicName>  (63) 
(E)-N-[(2R,3R,4S,5S,6R)-6-(hydroxymethyl)-3,4,5-tris(oxidanyl)oxan-2-yl]-3-(4-phenylphenyl)prop-2-enamide

>  <Synonyms>  (63) 


>  <Type>  (63) 
SACCHARIDE

>  <Formula>  (63) 
C21 H23 N O6

>  <ObservedFormula>  (63) 
C21 N O6

>  <MolecularWeight>  (63) 
385.41

>  <ModifiedDate>  (63) 
2014-07-18

>  <Parent>  (63) 


>  <OneLetterCode>  (63) 


>  <SubcomponentList>  (63) 


>  <AmbiguousFlag>  (63) 
N

>  <InsertionCode>  (63) 


>  <InstanceId>  (63) 
4MHS_26Q_A_901

>  <ChemCompId>  (63) 
26Q

>  <PdbId>  (63) 
4MHS

>  <ResidueNumber>  (63) 
901

>  <InChI>  (63) 
InChI=1S/C21H23NO6/c23-12-16-18(25)19(26)20(27)21(28-16)22-17(24)11-8-13-6-9-15(10-7-13)14-4-2-1-3-5-14/h1-11,16,18-21,23,25-27H,12H2,(H,22,24)/b11-8+/t16-,18-,19+,20-,21-/m1/s1

>  <InChIKey>  (63) 
BXIQZJVUHNZTDW-KLXRIHHNSA-N

>  <SMILES>  (63) 
c1ccc(cc1)c2ccc(cc2)/C=C/C(=O)N[C@H]3[C@@H]([C@H]([C@@H]([C@H](O3)CO)O)O)O

>  <MissingHeavyAtoms>  (63) 
0

>  <Model>  (63) 
1

>  <AltIds>  (63) 


>  <pKI>  (63) 
5.29

>  <ChemblID>  (63) 
CHEMBL3322335

>  <standardized_canonical_smiles>  (63) 
O=C(/C=C/c1ccc(-c2ccccc2)cc1)N[C@@H]1O[C@H](CO)[C@@H](O)[C@H](O)[C@H]1O

$$$$
4MIC_26Y_A_901
     RDKit          3D

 25 26  0  0  0  0  0  0  0  0999 V2000
   39.5530   28.8480   34.7690 C   0  0  0  0  0  0  0  0  0  0  0  0
   39.7590   27.3280   34.6910 C   0  0  0  0  0  0  0  0  0  0  0  0
   40.0740   26.7590   36.0740 C   0  0  0  0  0  0  0  0  0  0  0  0
   38.6180   26.7550   34.1100 C   0  0  0  0  0  0  0  0  0  0  0  0
   38.6450   26.5560   32.7330 C   0  0  0  0  0  0  0  0  0  0  0  0
   37.5550   26.0090   32.0760 C   0  0  0  0  0  0  0  0  0  0  0  0
   37.4660   26.4090   34.8300 C   0  0  0  0  0  0  0  0  0  0  0  0
   36.3720   25.8580   34.1600 C   0  0  0  0  0  0  0  0  0  0  0  0
   36.4100   25.6450   32.7790 C   0  0  0  0  0  0  0  0  0  0  0  0
   35.3080   25.1060   32.1130 C   0  0  0  0  0  0  0  0  0  0  0  0
   35.4500   24.4540   30.7240 C   0  0  0  0  0  0  0  0  0  0  0  0
   34.2330   23.8930   29.9730 C   0  0  0  0  0  0  0  0  0  0  0  0
   33.0940   23.9590   30.4340 O   0  0  0  0  0  0  0  0  0  0  0  0
   34.5330   23.3380   28.7920 N   0  0  0  0  0  0  0  0  0  0  0  0
   33.5070   22.7410   27.9230 C   0  0  0  0  0  0  0  0  0  0  0  0
   33.4260   21.3110   28.1790 O   0  0  0  0  0  0  0  0  0  0  0  0
   32.3300   20.7420   27.4460 C   0  0  0  0  0  0  0  0  0  0  0  0
   32.2270   19.2620   27.7820 C   0  0  0  0  0  0  0  0  0  0  0  0
   33.4810   18.6600   27.4050 O   0  0  0  0  0  0  0  0  0  0  0  0
   32.4880   20.9780   25.9100 C   0  0  0  0  0  0  0  0  0  0  0  0
   31.2860   20.5930   25.2430 O   0  0  0  0  0  0  0  0  0  0  0  0
   32.7320   22.4580   25.5970 C   0  0  0  0  0  0  0  0  0  0  0  0
   33.0200   22.6240   24.2010 O   0  0  0  0  0  0  0  0  0  0  0  0
   33.8830   22.9760   26.4660 C   0  0  0  0  0  0  0  0  0  0  0  0
   34.1020   24.3770   26.2450 O   0  0  0  0  0  0  0  0  0  0  0  0
  2  1  1  0
  3  2  1  0
  4  2  1  0
  5  4  2  0
  7  4  1  0
  6  5  1  0
  9  6  2  0
  8  7  2  0
  9  8  1  0
 10  9  1  0
 11 10  2  0
 12 11  1  0
 13 12  2  0
 14 12  1  0
 15 14  1  0
 16 15  1  0
 24 15  1  0
 17 16  1  0
 18 17  1  0
 20 17  1  0
 19 18  1  0
 21 20  1  0
 22 20  1  0
 23 22  1  0
 24 22  1  0
 25 24  1  0
A    1
C14
A    2
C13
A    3
C15
A    4
C10
A    5
C9
A    6
C8
A    7
C11
A    8
C12
A    9
C7
A   10
C6
A   11
C4
A   12
C2
A   13
O3
A   14
N1
A   15
C1'
A   16
O5'
A   17
C5'
A   18
C6'
A   19
O6'
A   20
C4'
A   21
O4'
A   22
C3'
A   23
O3'
A   24
C2'
A   25
O2'
M  END
>  <Id>  (64) 
4MIC_26Y_A_901

>  <ChainId>  (64) 
A

>  <AsymId>  (64) 
B

>  <SeqNum>  (64) 
901

>  <Name>  (64) 
N-{(2E)-3-[4-(propan-2-yl)phenyl]prop-2-enoyl}-beta-D-glucopyranosylamine

>  <SystematicName>  (64) 
(E)-N-[(2R,3R,4S,5S,6R)-6-(hydroxymethyl)-3,4,5-tris(oxidanyl)oxan-2-yl]-3-(4-propan-2-ylphenyl)prop-2-enamide

>  <Synonyms>  (64) 


>  <Type>  (64) 
SACCHARIDE

>  <Formula>  (64) 
C18 H25 N O6

>  <ObservedFormula>  (64) 
C18 N O6

>  <MolecularWeight>  (64) 
351.394

>  <ModifiedDate>  (64) 
2014-07-18

>  <Parent>  (64) 


>  <OneLetterCode>  (64) 


>  <SubcomponentList>  (64) 


>  <AmbiguousFlag>  (64) 
N

>  <InsertionCode>  (64) 


>  <InstanceId>  (64) 
4MIC_26Y_A_901

>  <ChemCompId>  (64) 
26Y

>  <PdbId>  (64) 
4MIC

>  <ResidueNumber>  (64) 
901

>  <InChI>  (64) 
InChI=1S/C18H25NO6/c1-10(2)12-6-3-11(4-7-12)5-8-14(21)19-18-17(24)16(23)15(22)13(9-20)25-18/h3-8,10,13,15-18,20,22-24H,9H2,1-2H3,(H,19,21)/b8-5+/t13-,15-,16+,17-,18-/m1/s1

>  <InChIKey>  (64) 
OPYZIUIJGFRFFX-AWRGUQPNSA-N

>  <SMILES>  (64) 
CC(C)c1ccc(cc1)/C=C/C(=O)N[C@H]2[C@@H]([C@H]([C@@H]([C@H](O2)CO)O)O)O

>  <MissingHeavyAtoms>  (64) 
0

>  <Model>  (64) 
1

>  <AltIds>  (64) 


>  <pKI>  (64) 
5.3

>  <ChemblID>  (64) 
CHEMBL3322337

>  <standardized_canonical_smiles>  (64) 
CC(C)c1ccc(/C=C/C(=O)N[C@@H]2O[C@H](CO)[C@@H](O)[C@H](O)[C@H]2O)cc1

$$$$
4MHO_26M_A_901
     RDKit          3D

 28 30  0  0  0  0  0  0  0  0999 V2000
   37.6580   27.8150   37.2030 C   0  0  0  0  0  0  0  0  0  0  0  0
   38.5720   28.2890   38.1470 C   0  0  0  0  0  0  0  0  0  0  0  0
   39.9110   27.8920   38.0960 C   0  0  0  0  0  0  0  0  0  0  0  0
   40.3380   27.0140   37.0970 C   0  0  0  0  0  0  0  0  0  0  0  0
   39.4170   26.5500   36.1340 C   0  0  0  0  0  0  0  0  0  0  0  0
   38.0720   26.9480   36.1870 C   0  0  0  0  0  0  0  0  0  0  0  0
   37.1520   26.4920   35.2160 C   0  0  0  0  0  0  0  0  0  0  0  0
   37.5530   26.4040   33.8700 C   0  0  0  0  0  0  0  0  0  0  0  0
   36.6530   25.9610   32.8870 C   0  0  0  0  0  0  0  0  0  0  0  0
   35.8500   26.1260   35.5700 C   0  0  0  0  0  0  0  0  0  0  0  0
   34.9390   25.6800   34.5910 C   0  0  0  0  0  0  0  0  0  0  0  0
   35.3440   25.5780   33.2480 C   0  0  0  0  0  0  0  0  0  0  0  0
   34.4250   25.1510   32.3150 O   0  0  0  0  0  0  0  0  0  0  0  0
   34.9560   24.7520   31.0460 C   0  0  0  0  0  0  0  0  0  0  0  0
   33.8420   24.1100   30.1940 C   0  0  0  0  0  0  0  0  0  0  0  0
   32.6700   24.1050   30.5690 O   0  0  0  0  0  0  0  0  0  0  0  0
   34.2550   23.6170   29.0190 N   0  0  0  0  0  0  0  0  0  0  0  0
   33.3310   22.9860   28.0640 C   0  0  0  0  0  0  0  0  0  0  0  0
   33.3140   21.5590   28.3250 O   0  0  0  0  0  0  0  0  0  0  0  0
   32.2380   20.9540   27.5830 C   0  0  0  0  0  0  0  0  0  0  0  0
   32.1640   19.4850   28.0100 C   0  0  0  0  0  0  0  0  0  0  0  0
   33.2840   18.7800   27.4700 O   0  0  0  0  0  0  0  0  0  0  0  0
   32.4560   21.1120   26.0340 C   0  0  0  0  0  0  0  0  0  0  0  0
   31.2930   20.6310   25.3190 O   0  0  0  0  0  0  0  0  0  0  0  0
   32.7180   22.6060   25.6560 C   0  0  0  0  0  0  0  0  0  0  0  0
   33.2030   22.7000   24.3280 O   0  0  0  0  0  0  0  0  0  0  0  0
   33.7750   23.2420   26.6090 C   0  0  0  0  0  0  0  0  0  0  0  0
   33.9200   24.6510   26.3640 O   0  0  0  0  0  0  0  0  0  0  0  0
  2  1  2  0
  6  1  1  0
  3  2  1  0
  4  3  2  0
  5  4  1  0
  6  5  2  0
  7  6  1  0
  8  7  2  0
 10  7  1  0
  9  8  1  0
 12  9  2  0
 11 10  2  0
 12 11  1  0
 13 12  1  0
 14 13  1  0
 15 14  1  0
 16 15  2  0
 17 15  1  0
 18 17  1  0
 19 18  1  0
 27 18  1  0
 20 19  1  0
 21 20  1  0
 23 20  1  0
 22 21  1  0
 24 23  1  0
 25 23  1  0
 26 25  1  0
 27 25  1  0
 28 27  1  0
A    1
C17
A    2
C16
A    3
C15
A    4
C14
A    5
C13
A    6
C12
A    7
C9
A    8
C8
A    9
C7
A   10
C10
A   11
C11
A   12
C6
A   13
O5
A   14
C4
A   15
C2
A   16
O3
A   17
N1
A   18
C1'
A   19
O5'
A   20
C5'
A   21
C6'
A   22
O6'
A   23
C4'
A   24
O4'
A   25
C3'
A   26
O3'
A   27
C2'
A   28
O2'
M  END
>  <Id>  (65) 
4MHO_26M_A_901

>  <ChainId>  (65) 
A

>  <AsymId>  (65) 
B

>  <SeqNum>  (65) 
901

>  <Name>  (65) 
N-[(biphenyl-4-yloxy)acetyl]-beta-D-glucopyranosylamine

>  <SystematicName>  (65) 
N-[(2R,3R,4S,5S,6R)-6-(hydroxymethyl)-3,4,5-tris(oxidanyl)oxan-2-yl]-2-(4-phenylphenoxy)ethanamide

>  <Synonyms>  (65) 


>  <Type>  (65) 
SACCHARIDE

>  <Formula>  (65) 
C20 H23 N O7

>  <ObservedFormula>  (65) 
C20 N O7

>  <MolecularWeight>  (65) 
389.399

>  <ModifiedDate>  (65) 
2014-07-18

>  <Parent>  (65) 


>  <OneLetterCode>  (65) 


>  <SubcomponentList>  (65) 


>  <AmbiguousFlag>  (65) 
N

>  <InsertionCode>  (65) 


>  <InstanceId>  (65) 
4MHO_26M_A_901

>  <ChemCompId>  (65) 
26M

>  <PdbId>  (65) 
4MHO

>  <ResidueNumber>  (65) 
901

>  <InChI>  (65) 
InChI=1S/C20H23NO7/c22-10-15-17(24)18(25)19(26)20(28-15)21-16(23)11-27-14-8-6-13(7-9-14)12-4-2-1-3-5-12/h1-9,15,17-20,22,24-26H,10-11H2,(H,21,23)/t15-,17-,18+,19-,20-/m1/s1

>  <InChIKey>  (65) 
NSADEBQKFSASLM-XIKSMUEASA-N

>  <SMILES>  (65) 
c1ccc(cc1)c2ccc(cc2)OCC(=O)N[C@H]3[C@@H]([C@H]([C@@H]([C@H](O3)CO)O)O)O

>  <MissingHeavyAtoms>  (65) 
0

>  <Model>  (65) 
1

>  <AltIds>  (65) 


>  <pKI>  (65) 
5.08

>  <ChemblID>  (65) 
CHEMBL3322341

>  <standardized_canonical_smiles>  (65) 
O=C(COc1ccc(-c2ccccc2)cc1)N[C@@H]1O[C@H](CO)[C@@H](O)[C@H](O)[C@H]1O

$$$$
3G2N_OAK_A_998
     RDKit          3D

 20 21  0  0  0  0  0  0  0  0999 V2000
   37.1580   23.4870   30.4910 C   0  0  0  0  0  0  0  0  0  0  0  0
   38.3350   23.8670   31.1330 C   0  0  0  0  0  0  0  0  0  0  0  0
   38.4750   25.1600   31.6300 C   0  0  0  0  0  0  0  0  0  0  0  0
   37.4290   26.0740   31.4840 C   0  0  0  0  0  0  0  0  0  0  0  0
   36.2470   25.6910   30.8390 C   0  0  0  0  0  0  0  0  0  0  0  0
   36.1140   24.3940   30.3420 C   0  0  0  0  0  0  0  0  0  0  0  0
   34.8170   23.9710   29.6420 C   0  0  0  0  0  0  0  0  0  0  0  0
   33.7260   24.2890   30.1100 O   0  0  0  0  0  0  0  0  0  0  0  0
   34.9690   23.2500   28.5340 N   0  0  0  0  0  0  0  0  0  0  0  0
   33.7690   22.7880   27.7880 C   0  0  0  0  0  0  0  0  0  0  0  0
   33.5440   21.3610   28.0580 O   0  0  0  0  0  0  0  0  0  0  0  0
   32.3720   20.8560   27.4120 C   0  0  0  0  0  0  0  0  0  0  0  0
   32.2320   19.3880   27.8560 C   0  0  0  0  0  0  0  0  0  0  0  0
   33.3160   18.6190   27.3300 O   0  0  0  0  0  0  0  0  0  0  0  0
   32.5250   21.0280   25.8800 C   0  0  0  0  0  0  0  0  0  0  0  0
   31.3420   20.5750   25.2380 O   0  0  0  0  0  0  0  0  0  0  0  0
   32.7830   22.4940   25.4940 C   0  0  0  0  0  0  0  0  0  0  0  0
   33.0530   22.5840   24.0950 O   0  0  0  0  0  0  0  0  0  0  0  0
   33.9700   23.0640   26.2880 C   0  0  0  0  0  0  0  0  0  0  0  0
   34.1230   24.4740   26.0520 O   0  0  0  0  0  0  0  0  0  0  0  0
  2  1  2  0
  6  1  1  0
  3  2  1  0
  4  3  2  0
  5  4  1  0
  6  5  2  0
  7  6  1  0
  8  7  2  0
  9  7  1  0
 10  9  1  0
 11 10  1  0
 19 10  1  0
 12 11  1  0
 13 12  1  0
 15 12  1  0
 14 13  1  0
 16 15  1  0
 17 15  1  0
 18 17  1  0
 19 17  1  0
 20 19  1  0
A    1
C9
A    2
C10
A    3
C11
A    4
C12
A    5
C13
A    6
C8
A    7
C7
A    8
O7
A    9
N1
A   10
C1
A   11
O5
A   12
C5
A   13
C6
A   14
O6
A   15
C4
A   16
O4
A   17
C3
A   18
O3
A   19
C2
A   20
O2
M  END
>  <Id>  (66) 
3G2N_OAK_A_998

>  <ChainId>  (66) 
A

>  <AsymId>  (66) 
B

>  <SeqNum>  (66) 
998

>  <Name>  (66) 
N-(phenylcarbonyl)-beta-D-glucopyranosylamine

>  <SystematicName>  (66) 
N-[(2R,3R,4S,5S,6R)-3,4,5-trihydroxy-6-(hydroxymethyl)oxan-2-yl]benzamide

>  <Synonyms>  (66) 


>  <Type>  (66) 
NON-POLYMER

>  <Formula>  (66) 
C13 H17 N O6

>  <ObservedFormula>  (66) 
C13 N O6

>  <MolecularWeight>  (66) 
283.277

>  <ModifiedDate>  (66) 
2011-06-04

>  <Parent>  (66) 


>  <OneLetterCode>  (66) 


>  <SubcomponentList>  (66) 


>  <AmbiguousFlag>  (66) 
N

>  <InsertionCode>  (66) 


>  <InstanceId>  (66) 
3G2N_OAK_A_998

>  <ChemCompId>  (66) 
OAK

>  <PdbId>  (66) 
3G2N

>  <ResidueNumber>  (66) 
998

>  <InChI>  (66) 
InChI=1S/C13H17NO6/c15-6-8-9(16)10(17)11(18)13(20-8)14-12(19)7-4-2-1-3-5-7/h1-5,8-11,13,15-18H,6H2,(H,14,19)/t8-,9-,10+,11-,13-/m1/s1

>  <InChIKey>  (66) 
SPYSOSUFGSNSMY-BZNQNGANSA-N

>  <SMILES>  (66) 
c1ccc(cc1)C(=O)N[C@H]2[C@@H]([C@H]([C@@H]([C@H](O2)CO)O)O)O

>  <MissingHeavyAtoms>  (66) 
0

>  <Model>  (66) 
1

>  <AltIds>  (66) 


>  <pKI>  (66) 
4.09

>  <ChemblID>  (66) 
CHEMBL131967

>  <standardized_canonical_smiles>  (66) 
O=C(N[C@@H]1O[C@H](CO)[C@@H](O)[C@H](O)[C@H]1O)c1ccccc1

$$$$
5JTU_6NE_A_902
     RDKit          3D

 26 29  0  0  0  0  0  0  0  0999 V2000
   36.2890   24.8860   31.7630 C   0  0  0  0  0  0  0  0  0  0  0  0
   37.9350   25.8730   33.2120 C   0  0  0  0  0  0  0  0  0  0  0  0
   34.6490   24.0020   30.0260 N   0  0  0  0  0  0  0  0  0  0  0  0
   36.8960   26.0390   34.2560 C   0  0  0  0  0  0  0  0  0  0  0  0
   33.2190   18.6620   27.3210 O   0  0  0  0  0  0  0  0  0  0  0  0
   32.2040   19.5090   27.8960 C   0  0  0  0  0  0  0  0  0  0  0  0
   32.4050   20.9880   27.5160 C   0  0  0  0  0  0  0  0  0  0  0  0
   32.5470   21.1920   25.9940 C   0  0  0  0  0  0  0  0  0  0  0  0
   31.3700   20.7430   25.3220 O   0  0  0  0  0  0  0  0  0  0  0  0
   33.5510   21.5260   28.1680 O   0  0  0  0  0  0  0  0  0  0  0  0
   33.6440   22.9420   27.9700 C   0  0  0  0  0  0  0  0  0  0  0  0
   33.9230   23.1960   26.4770 C   0  0  0  0  0  0  0  0  0  0  0  0
   34.0080   24.5870   26.2210 O   0  0  0  0  0  0  0  0  0  0  0  0
   32.7750   22.6380   25.6250 C   0  0  0  0  0  0  0  0  0  0  0  0
   33.0540   22.7370   24.2160 O   0  0  0  0  0  0  0  0  0  0  0  0
   34.7500   23.4280   28.8200 C   0  0  0  0  0  0  0  0  0  0  0  0
   36.0750   23.2930   28.5100 N   0  0  0  0  0  0  0  0  0  0  0  0
   36.7960   23.8190   29.5190 C   0  0  0  0  0  0  0  0  0  0  0  0
   35.9090   24.2760   30.4660 C   0  0  0  0  0  0  0  0  0  0  0  0
   37.6150   25.3050   31.9950 C   0  0  0  0  0  0  0  0  0  0  0  0
   39.2310   26.3110   33.4760 C   0  0  0  0  0  0  0  0  0  0  0  0
   39.5480   26.8460   34.7150 C   0  0  0  0  0  0  0  0  0  0  0  0
   38.5820   26.9750   35.7060 C   0  0  0  0  0  0  0  0  0  0  0  0
   37.2520   26.5960   35.4730 C   0  0  0  0  0  0  0  0  0  0  0  0
   35.5900   25.6210   33.9930 C   0  0  0  0  0  0  0  0  0  0  0  0
   35.3020   25.0610   32.7550 C   0  0  0  0  0  0  0  0  0  0  0  0
 19  1  1  0
 20  1  2  0
 26  1  1  0
  4  2  2  0
 20  2  1  0
 21  2  1  0
 16  3  1  0
 19  3  1  0
 24  4  1  0
 25  4  1  0
  6  5  1  0
  7  6  1  0
  8  7  1  0
 10  7  1  0
  9  8  1  0
 14  8  1  0
 11 10  1  0
 12 11  1  0
 16 11  1  0
 13 12  1  0
 14 12  1  0
 15 14  1  0
 17 16  2  0
 18 17  1  0
 19 18  2  0
 22 21  2  0
 23 22  1  0
 24 23  2  0
 26 25  2  0
A    1
C6
A    2
C8
A    3
N5
A    4
C9
A    5
O6'
A    6
C6'
A    7
C5'
A    8
C4'
A    9
O4'
A   10
O5'
A   11
C1'
A   12
C2'
A   13
O2'
A   14
C3'
A   15
O3'
A   16
C1
A   17
N2
A   18
C3
A   19
C4
A   20
C7
A   21
C12
A   22
C13
A   23
C14
A   24
C15
A   25
C10
A   26
C11
M  END
>  <Id>  (67) 
5JTU_6NE_A_902

>  <ChainId>  (67) 
A

>  <AsymId>  (67) 
C

>  <SeqNum>  (67) 
902

>  <Name>  (67) 
(1S)-1,5-anhydro-1-[5-(naphthalen-2-yl)-1H-imidazol-2-yl]-D-glucitol

>  <SystematicName>  (67) 
(2~{R},3~{S},4~{R},5~{R},6~{S})-2-(hydroxymethyl)-6-(5-naphthalen-2-yl-1~{H}-imidazol-2-yl)oxane-3,4,5-triol

>  <Synonyms>  (67) 


>  <Type>  (67) 
NON-POLYMER

>  <Formula>  (67) 
C19 H20 N2 O5

>  <ObservedFormula>  (67) 
C19 N2 O5

>  <MolecularWeight>  (67) 
356.373

>  <ModifiedDate>  (67) 
2016-08-18

>  <Parent>  (67) 


>  <OneLetterCode>  (67) 


>  <SubcomponentList>  (67) 


>  <AmbiguousFlag>  (67) 
N

>  <InsertionCode>  (67) 


>  <InstanceId>  (67) 
5JTU_6NE_A_902

>  <ChemCompId>  (67) 
6NE

>  <PdbId>  (67) 
5JTU

>  <ResidueNumber>  (67) 
902

>  <InChI>  (67) 
InChI=1S/C19H20N2O5/c22-9-14-15(23)16(24)17(25)18(26-14)19-20-8-13(21-19)12-6-5-10-3-1-2-4-11(10)7-12/h1-8,14-18,22-25H,9H2,(H,20,21)/t14-,15-,16+,17-,18-/m1/s1

>  <InChIKey>  (67) 
AXGMUNPLTDCCLX-UYTYNIKBSA-N

>  <MissingHeavyAtoms>  (67) 
0

>  <Model>  (67) 
1

>  <AltIds>  (67) 


>  <pKI>  (67) 
7.51

>  <ChemblID>  (67) 
CHEMBL3770455

>  <standardized_canonical_smiles>  (67) 
OC[C@H]1O[C@@H](c2nc(-c3ccc4ccccc4c3)c[nH]2)[C@H](O)[C@@H](O)[C@@H]1O

$$$$
5JTT_6MY_A_902
     RDKit          3D

 22 24  0  0  0  0  0  0  0  0999 V2000
   36.1600   24.8980   31.9410 C   0  0  0  0  0  0  0  0  0  0  0  0
   37.6580   25.9960   33.4910 C   0  0  0  0  0  0  0  0  0  0  0  0
   34.6140   24.0300   30.1080 N   0  0  0  0  0  0  0  0  0  0  0  0
   36.6010   26.2080   34.3840 C   0  0  0  0  0  0  0  0  0  0  0  0
   33.3010   18.7850   27.3030 O   0  0  0  0  0  0  0  0  0  0  0  0
   32.2720   19.5490   27.9310 C   0  0  0  0  0  0  0  0  0  0  0  0
   32.3990   21.0160   27.5500 C   0  0  0  0  0  0  0  0  0  0  0  0
   32.5540   21.2350   26.0320 C   0  0  0  0  0  0  0  0  0  0  0  0
   31.3760   20.8210   25.3280 O   0  0  0  0  0  0  0  0  0  0  0  0
   33.5140   21.5930   28.2440 O   0  0  0  0  0  0  0  0  0  0  0  0
   33.6430   23.0060   28.0350 C   0  0  0  0  0  0  0  0  0  0  0  0
   33.9660   23.2600   26.5550 C   0  0  0  0  0  0  0  0  0  0  0  0
   34.1450   24.6500   26.2760 O   0  0  0  0  0  0  0  0  0  0  0  0
   32.8420   22.6830   25.6770 C   0  0  0  0  0  0  0  0  0  0  0  0
   33.1590   22.7380   24.2740 O   0  0  0  0  0  0  0  0  0  0  0  0
   34.7560   23.4640   28.9070 C   0  0  0  0  0  0  0  0  0  0  0  0
   36.0930   23.3440   28.6450 N   0  0  0  0  0  0  0  0  0  0  0  0
   36.7830   23.8490   29.6960 C   0  0  0  0  0  0  0  0  0  0  0  0
   35.8650   24.2480   30.6330 C   0  0  0  0  0  0  0  0  0  0  0  0
   37.4480   25.3290   32.2830 C   0  0  0  0  0  0  0  0  0  0  0  0
   35.3260   25.7780   34.0370 C   0  0  0  0  0  0  0  0  0  0  0  0
   35.1250   25.1210   32.8270 C   0  0  0  0  0  0  0  0  0  0  0  0
 19  1  1  0
 20  1  2  0
 22  1  1  0
  4  2  2  0
 20  2  1  0
 16  3  1  0
 19  3  1  0
 21  4  1  0
  6  5  1  0
  7  6  1  0
  8  7  1  0
 10  7  1  0
  9  8  1  0
 14  8  1  0
 11 10  1  0
 12 11  1  0
 16 11  1  0
 13 12  1  0
 14 12  1  0
 15 14  1  0
 17 16  2  0
 18 17  1  0
 19 18  2  0
 22 21  2  0
A    1
C6
A    2
C8
A    3
N5
A    4
C9
A    5
O6'
A    6
C6'
A    7
C5'
A    8
C4'
A    9
O4'
A   10
O5'
A   11
C1'
A   12
C2'
A   13
O2'
A   14
C3'
A   15
O3'
A   16
C1
A   17
N2
A   18
C3
A   19
C4
A   20
C7
A   21
C10
A   22
C11
M  END
>  <Id>  (68) 
5JTT_6MY_A_902

>  <ChainId>  (68) 
A

>  <AsymId>  (68) 
C

>  <SeqNum>  (68) 
902

>  <Name>  (68) 
(1S)-1,5-anhydro-1-(5-phenyl-1H-imidazol-2-yl)-D-glucitol

>  <SystematicName>  (68) 
(2~{R},3~{S},4~{R},5~{R},6~{S})-2-(hydroxymethyl)-6-(5-phenyl-1~{H}-imidazol-2-yl)oxane-3,4,5-triol

>  <Synonyms>  (68) 


>  <Type>  (68) 
NON-POLYMER

>  <Formula>  (68) 
C15 H18 N2 O5

>  <ObservedFormula>  (68) 
C15 N2 O5

>  <MolecularWeight>  (68) 
306.314

>  <ModifiedDate>  (68) 
2016-08-18

>  <Parent>  (68) 


>  <OneLetterCode>  (68) 


>  <SubcomponentList>  (68) 


>  <AmbiguousFlag>  (68) 
N

>  <InsertionCode>  (68) 


>  <InstanceId>  (68) 
5JTT_6MY_A_902

>  <ChemCompId>  (68) 
6MY

>  <PdbId>  (68) 
5JTT

>  <ResidueNumber>  (68) 
902

>  <InChI>  (68) 
InChI=1S/C15H18N2O5/c18-7-10-11(19)12(20)13(21)14(22-10)15-16-6-9(17-15)8-4-2-1-3-5-8/h1-6,10-14,18-21H,7H2,(H,16,17)/t10-,11-,12+,13-,14-/m1/s1

>  <InChIKey>  (68) 
QJGQTBOHSOZKLJ-RKQHYHRCSA-N

>  <MissingHeavyAtoms>  (68) 
0

>  <Model>  (68) 
1

>  <AltIds>  (68) 


>  <pKI>  (68) 
6.55

>  <ChemblID>  (68) 
CHEMBL3770514

>  <standardized_canonical_smiles>  (68) 
OC[C@H]1O[C@@H](c2nc(-c3ccccc3)c[nH]2)[C@H](O)[C@@H](O)[C@@H]1O

$$$$
2QRQ_S13_A_998
     RDKit          3D

 22 24  0  0  0  0  0  0  0  0999 V2000
   36.1830   24.3820   30.5880 C   0  0  0  0  0  0  0  0  0  0  0  0
   36.8720   24.8340   31.7180 C   0  0  0  0  0  0  0  0  0  0  0  0
   36.1690   25.1700   32.8760 C   0  0  0  0  0  0  0  0  0  0  0  0
   36.9190   25.6700   34.1180 C   0  0  0  0  0  0  0  0  0  0  0  0
   34.7840   25.0400   32.9140 C   0  0  0  0  0  0  0  0  0  0  0  0
   34.0970   24.5900   31.7840 C   0  0  0  0  0  0  0  0  0  0  0  0
   34.7930   24.2510   30.6210 C   0  0  0  0  0  0  0  0  0  0  0  0
   34.0920   23.8180   29.4920 C   0  0  0  0  0  0  0  0  0  0  0  0
   34.6730   23.1140   28.2650 C   0  0  0  0  0  0  0  0  0  0  0  0
   32.7880   23.9840   29.2900 N   0  0  0  0  0  0  0  0  0  0  0  0
   32.3570   23.4600   28.0260 O   0  0  0  0  0  0  0  0  0  0  0  0
   33.4330   22.6820   27.4820 C   0  0  0  0  0  0  0  0  0  0  0  0
   33.1850   21.2790   27.7170 O   0  0  0  0  0  0  0  0  0  0  0  0
   31.9990   20.7720   27.0420 C   0  0  0  0  0  0  0  0  0  0  0  0
   31.8590   19.3100   27.4690 C   0  0  0  0  0  0  0  0  0  0  0  0
   32.9300   18.5450   26.9100 O   0  0  0  0  0  0  0  0  0  0  0  0
   32.1420   20.9370   25.5180 C   0  0  0  0  0  0  0  0  0  0  0  0
   30.9640   20.4610   24.8430 O   0  0  0  0  0  0  0  0  0  0  0  0
   32.4090   22.4070   25.1530 C   0  0  0  0  0  0  0  0  0  0  0  0
   32.6890   22.5110   23.7530 O   0  0  0  0  0  0  0  0  0  0  0  0
   33.5950   22.9670   25.9670 C   0  0  0  0  0  0  0  0  0  0  0  0
   33.7220   24.3740   25.7390 O   0  0  0  0  0  0  0  0  0  0  0  0
  2  1  2  0
  7  1  1  0
  3  2  1  0
  4  3  1  0
  5  3  2  0
  6  5  1  0
  7  6  2  0
  8  7  1  0
  9  8  1  0
 10  8  1  0
 12  9  1  0
 11 10  1  0
 12 11  1  0
 13 12  1  0
 21 12  1  0
 14 13  1  0
 15 14  1  0
 17 14  1  0
 16 15  1  0
 18 17  1  0
 19 17  1  0
 20 19  1  0
 21 19  1  0
 22 21  1  0
A    1
C10
A    2
C11
A    3
C12
A    4
C15
A    5
C13
A    6
C14
A    7
C9
A    8
C8
A    9
C7
A   10
N1
A   11
O7
A   12
C1
A   13
O5
A   14
C5
A   15
C6
A   16
O6
A   17
C4
A   18
O4
A   19
C3
A   20
O3
A   21
C2
A   22
O2
M  END
>  <Id>  (69) 
2QRQ_S13_A_998

>  <ChainId>  (69) 
A

>  <AsymId>  (69) 
B

>  <SeqNum>  (69) 
998

>  <Name>  (69) 
(3S,5R,7R,8S,9S,10R)-7-(hydroxymethyl)-3-(4-methylphenyl)-1,6-dioxa-2-azaspiro[4.5]decane-8,9,10-triol

>  <SystematicName>  (69) 
(5R,6R,7S,8S,9R)-9-(hydroxymethyl)-3-(4-methylphenyl)-1,10-dioxa-2-azaspiro[4.5]decane-6,7,8-triol

>  <Synonyms>  (69) 
(1R)-3'-(4-methylphenyl)-spiro[1,5-anhydro-D-glucitol-1,5'-isoxazoline]

>  <Type>  (69) 
NON-POLYMER

>  <Formula>  (69) 
C15 H21 N O6

>  <ObservedFormula>  (69) 
C15 N O6

>  <MolecularWeight>  (69) 
311.33

>  <ModifiedDate>  (69) 
2011-06-04

>  <Parent>  (69) 


>  <OneLetterCode>  (69) 


>  <SubcomponentList>  (69) 


>  <AmbiguousFlag>  (69) 


>  <InsertionCode>  (69) 


>  <InstanceId>  (69) 
2QRQ_S13_A_998

>  <ChemCompId>  (69) 
S13

>  <PdbId>  (69) 
2QRQ

>  <ResidueNumber>  (69) 
998

>  <InChI>  (69) 
InChI=1S/C15H21NO6/c1-8-2-4-9(5-3-8)10-6-15(22-16-10)14(20)13(19)12(18)11(7-17)21-15/h2-5,10-14,16-20H,6-7H2,1H3/t10-,11+,12+,13-,14+,15+/m0/s1

>  <InChIKey>  (69) 
HRCKGDOSPBFICB-MZHQWRCYSA-N

>  <SMILES>  (69) 
Cc1ccc(cc1)C2C[C@]3([C@@H]([C@H]([C@@H]([C@H](O3)CO)O)O)O)ON2

>  <MissingHeavyAtoms>  (69) 
0

>  <Model>  (69) 
1

>  <AltIds>  (69) 


>  <pKI>  (69) 
5.1

>  <ChemblID>  (69) 
-

>  <standardized_canonical_smiles>  (69) 
Cc1ccc(C2C[C@]3(ON2)O[C@H](CO)[C@@H](O)[C@H](O)[C@H]3O)cc1

$$$$
1XL0_OX2_A_998
     RDKit          3D

 17 18  0  0  0  0  0  0  0  0999 V2000
   33.4080   22.7610   27.8120 C   0  0  0  0  0  0  0  0  0  0  0  0
   33.7780   23.0140   26.3100 C   0  0  0  0  0  0  0  0  0  0  0  0
   33.9450   24.4210   26.0350 O   0  0  0  0  0  0  0  0  0  0  0  0
   32.6330   22.4510   25.4290 C   0  0  0  0  0  0  0  0  0  0  0  0
   32.9050   22.6300   24.0210 O   0  0  0  0  0  0  0  0  0  0  0  0
   32.4330   20.9490   25.7360 C   0  0  0  0  0  0  0  0  0  0  0  0
   31.3300   20.4130   24.9670 O   0  0  0  0  0  0  0  0  0  0  0  0
   32.1610   20.7560   27.2540 C   0  0  0  0  0  0  0  0  0  0  0  0
   33.2260   21.3290   28.0720 O   0  0  0  0  0  0  0  0  0  0  0  0
   32.0000   19.2450   27.6150 C   0  0  0  0  0  0  0  0  0  0  0  0
   33.0970   18.4750   27.0580 O   0  0  0  0  0  0  0  0  0  0  0  0
   35.4450   24.3230   30.2750 N   0  0  0  0  0  0  0  0  0  0  0  0
   34.2350   24.1260   29.7180 N   0  0  0  0  0  0  0  0  0  0  0  0
   34.5020   23.2880   28.7370 C   0  0  0  0  0  0  0  0  0  0  0  0
   35.8480   22.9500   28.6610 O   0  0  0  0  0  0  0  0  0  0  0  0
   36.3160   23.6650   29.6780 C   0  0  0  0  0  0  0  0  0  0  0  0
   37.7770   23.6250   30.0010 C   0  0  0  0  0  0  0  0  0  0  0  0
  2  1  1  0
  9  1  1  0
 14  1  1  0
  3  2  1  0
  4  2  1  0
  5  4  1  0
  6  4  1  0
  7  6  1  0
  8  6  1  0
  9  8  1  0
 10  8  1  0
 11 10  1  0
 13 12  1  0
 16 12  2  0
 14 13  2  0
 15 14  1  0
 16 15  1  0
 17 16  1  0
A    1
C1
A    2
C2
A    3
O2
A    4
C3
A    5
O3
A    6
C4
A    7
O4
A    8
C5
A    9
O5
A   10
C6
A   11
O6
A   12
N1
A   13
N2
A   14
C7
A   15
O7
A   16
C8
A   17
C9
M  END
>  <Id>  (70) 
1XL0_OX2_A_998

>  <ChainId>  (70) 
A

>  <AsymId>  (70) 
B

>  <SeqNum>  (70) 
998

>  <Name>  (70) 
2-(BETA-D-GLUCOPYRANOSYL)-5-METHYL-1,3,4-OXADIAZOLE

>  <SystematicName>  (70) 
(2R,3S,4S,5R,6R)-2-(hydroxymethyl)-6-(5-methyl-1,3,4-oxadiazol-2-yl)oxane-3,4,5-triol

>  <Synonyms>  (70) 


>  <Type>  (70) 
D-SACCHARIDE

>  <Formula>  (70) 
C9 H14 N2 O6

>  <ObservedFormula>  (70) 
C9 N2 O6

>  <MolecularWeight>  (70) 
246.217

>  <ModifiedDate>  (70) 
2011-06-04

>  <Parent>  (70) 


>  <OneLetterCode>  (70) 


>  <SubcomponentList>  (70) 


>  <AmbiguousFlag>  (70) 
N

>  <InsertionCode>  (70) 


>  <InstanceId>  (70) 
1XL0_OX2_A_998

>  <ChemCompId>  (70) 
OX2

>  <PdbId>  (70) 
1XL0

>  <ResidueNumber>  (70) 
998

>  <InChI>  (70) 
InChI=1S/C9H14N2O6/c1-3-10-11-9(16-3)8-7(15)6(14)5(13)4(2-12)17-8/h4-8,12-15H,2H2,1H3/t4-,5-,6+,7-,8-/m1/s1

>  <InChIKey>  (70) 
HCSFWJQLIPWUFZ-JAJWTYFOSA-N

>  <SMILES>  (70) 
Cc1nnc(o1)[C@H]2[C@@H]([C@H]([C@@H]([C@H](O2)CO)O)O)O

>  <MissingHeavyAtoms>  (70) 
0

>  <Model>  (70) 
1

>  <AltIds>  (70) 


>  <pKI>  (70) 
3.84

>  <ChemblID>  (70) 
-

>  <standardized_canonical_smiles>  (70) 
Cc1nnc([C@@H]2O[C@H](CO)[C@@H](O)[C@H](O)[C@H]2O)o1

$$$$
6GPB_H2P_A_998
     RDKit          3D

 17 17  0  0  0  0  0  0  0  0999 V2000
   33.4830   23.0080   27.8320 C   0  0  0  0  0  0  0  0  0  0  0  0
   33.6870   23.1710   26.3310 C   0  0  0  0  0  0  0  0  0  0  0  0
   32.4770   22.6150   25.5910 C   0  0  0  0  0  0  0  0  0  0  0  0
   32.3010   21.1400   25.9210 C   0  0  0  0  0  0  0  0  0  0  0  0
   32.1120   20.9690   27.4240 C   0  0  0  0  0  0  0  0  0  0  0  0
   32.0400   19.4930   27.7900 C   0  0  0  0  0  0  0  0  0  0  0  0
   34.7000   23.4750   28.6160 C   0  0  0  0  0  0  0  0  0  0  0  0
   32.3220   23.8330   28.1980 O   0  0  0  0  0  0  0  0  0  0  0  0
   33.8550   24.5900   26.0030 O   0  0  0  0  0  0  0  0  0  0  0  0
   32.6690   22.7800   24.1440 O   0  0  0  0  0  0  0  0  0  0  0  0
   31.1290   20.6140   25.2110 O   0  0  0  0  0  0  0  0  0  0  0  0
   33.2430   21.5870   28.1340 O   0  0  0  0  0  0  0  0  0  0  0  0
   33.2810   18.8050   27.4050 O   0  0  0  0  0  0  0  0  0  0  0  0
   31.5120   25.0300   27.5030 P   0  0  0  0  0  0  0  0  0  0  0  0
   30.3860   24.4830   26.5240 O   0  0  0  0  0  0  0  0  0  0  0  0
   30.8240   25.8660   28.6770 O   0  0  0  0  0  0  0  0  0  0  0  0
   32.5150   25.9480   26.6810 O   0  0  0  0  0  0  0  0  0  0  0  0
  2  1  1  0
  7  1  1  0
  8  1  1  0
 12  1  1  0
  3  2  1  0
  9  2  1  0
  4  3  1  0
 10  3  1  0
  5  4  1  0
 11  4  1  0
  6  5  1  0
 12  5  1  0
 13  6  1  0
 14  8  1  0
 15 14  2  0
 16 14  1  0
 17 14  1  0
A    1
C1
A    2
C2
A    3
C3
A    4
C4
A    5
C5
A    6
C6
A    7
C7
A    8
O1
A    9
O2
A   10
O3
A   11
O4
A   12
O5
A   13
O6
A   14
P
A   15
OP1
A   16
OP2
A   17
OP3
M  END
>  <Id>  (71) 
6GPB_H2P_A_998

>  <ChainId>  (71) 
A

>  <AsymId>  (71) 
B

>  <SeqNum>  (71) 
998

>  <Name>  (71) 
HEPTULOSE-2-PHOSPHATE

>  <SystematicName>  (71) 
[(2R,3R,4S,5S,6R)-3,4,5-trihydroxy-6-(hydroxymethyl)-2-methyl-oxan-2-yl] dihydrogen phosphate

>  <Synonyms>  (71) 


>  <Type>  (71) 
SACCHARIDE

>  <Formula>  (71) 
C7 H15 O9 P

>  <ObservedFormula>  (71) 
P C7 O9

>  <MolecularWeight>  (71) 
274.162

>  <ModifiedDate>  (71) 
2011-06-04

>  <Parent>  (71) 


>  <OneLetterCode>  (71) 


>  <SubcomponentList>  (71) 


>  <AmbiguousFlag>  (71) 
N

>  <InsertionCode>  (71) 


>  <InstanceId>  (71) 
6GPB_H2P_A_998

>  <ChemCompId>  (71) 
H2P

>  <PdbId>  (71) 
6GPB

>  <ResidueNumber>  (71) 
998

>  <InChI>  (71) 
InChI=1S/C7H15O9P/c1-7(16-17(12,13)14)6(11)5(10)4(9)3(2-8)15-7/h3-6,8-11H,2H2,1H3,(H2,12,13,14)/t3-,4-,5+,6-,7-/m1/s1

>  <InChIKey>  (71) 
QZBAZODTRUGOQS-XUUWZHRGSA-N

>  <SMILES>  (71) 
C[C@]1([C@@H]([C@H]([C@@H]([C@H](O1)CO)O)O)O)OP(=O)(O)O

>  <MissingHeavyAtoms>  (71) 
0

>  <Model>  (71) 
1

>  <AltIds>  (71) 


>  <pKI>  (71) 
4.85

>  <ChemblID>  (71) 
-

>  <standardized_canonical_smiles>  (71) 
C[C@]1(OP(=O)(O)O)O[C@H](CO)[C@@H](O)[C@H](O)[C@H]1O

$$$$
4MI9_26W_A_901
     RDKit          3D

 25 26  0  0  0  0  0  0  0  0999 V2000
   40.6330   27.3750   34.9600 C   0  0  0  0  0  0  0  0  0  0  0  0
   39.2230   27.9340   34.7000 C   0  0  0  0  0  0  0  0  0  0  0  0
   38.4250   27.0200   33.9530 C   0  0  0  0  0  0  0  0  0  0  0  0
   37.2250   26.5120   34.4530 C   0  0  0  0  0  0  0  0  0  0  0  0
   36.4570   25.6280   33.6840 C   0  0  0  0  0  0  0  0  0  0  0  0
   38.8360   26.6310   32.6770 C   0  0  0  0  0  0  0  0  0  0  0  0
   38.0820   25.7390   31.9120 C   0  0  0  0  0  0  0  0  0  0  0  0
   36.8900   25.2270   32.4170 C   0  0  0  0  0  0  0  0  0  0  0  0
   36.1100   24.3230   31.6410 C   0  0  0  0  0  0  0  0  0  0  0  0
   36.9970   23.2480   31.0330 C   0  0  0  0  0  0  0  0  0  0  0  0
   35.3850   25.1140   30.5890 C   0  0  0  0  0  0  0  0  0  0  0  0
   34.3230   24.2300   29.8790 C   0  0  0  0  0  0  0  0  0  0  0  0
   33.2220   24.0900   30.4060 O   0  0  0  0  0  0  0  0  0  0  0  0
   34.6320   23.7290   28.6690 N   0  0  0  0  0  0  0  0  0  0  0  0
   33.6060   22.9820   27.9000 C   0  0  0  0  0  0  0  0  0  0  0  0
   33.5700   21.5550   28.1610 O   0  0  0  0  0  0  0  0  0  0  0  0
   32.3990   20.9750   27.5370 C   0  0  0  0  0  0  0  0  0  0  0  0
   32.2700   19.5220   27.9620 C   0  0  0  0  0  0  0  0  0  0  0  0
   33.3400   18.7750   27.3520 O   0  0  0  0  0  0  0  0  0  0  0  0
   32.4750   21.1490   25.9590 C   0  0  0  0  0  0  0  0  0  0  0  0
   31.2860   20.6450   25.3350 O   0  0  0  0  0  0  0  0  0  0  0  0
   32.6970   22.5890   25.5540 C   0  0  0  0  0  0  0  0  0  0  0  0
   33.0540   22.6400   24.1460 O   0  0  0  0  0  0  0  0  0  0  0  0
   33.8540   23.2070   26.3990 C   0  0  0  0  0  0  0  0  0  0  0  0
   33.9750   24.5880   26.1280 O   0  0  0  0  0  0  0  0  0  0  0  0
  2  1  1  0
  3  2  1  0
  4  3  2  0
  6  3  1  0
  5  4  1  0
  8  5  2  0
  7  6  2  0
  8  7  1  0
  9  8  1  0
 10  9  1  0
 11  9  1  0
 12 11  1  0
 13 12  2  0
 14 12  1  0
 15 14  1  0
 16 15  1  0
 24 15  1  0
 17 16  1  0
 18 17  1  0
 20 17  1  0
 19 18  1  0
 21 20  1  0
 22 20  1  0
 23 22  1  0
 24 22  1  0
 25 24  1  0
A    1
C14
A    2
C13
A    3
C10
A    4
C11
A    5
C12
A    6
C9
A    7
C8
A    8
C7
A    9
C5
A   10
C6
A   11
C4
A   12
C2
A   13
O3
A   14
N1
A   15
C1'
A   16
O5'
A   17
C5'
A   18
C6'
A   19
O6'
A   20
C4'
A   21
O4'
A   22
C3'
A   23
O3'
A   24
C2'
A   25
O2'
M  END
>  <Id>  (72) 
4MI9_26W_A_901

>  <ChainId>  (72) 
A

>  <AsymId>  (72) 
B

>  <SeqNum>  (72) 
901

>  <Name>  (72) 
N-[(3R)-3-(4-ethylphenyl)butanoyl]-beta-D-glucopyranosylamine

>  <SystematicName>  (72) 
(3R)-3-(4-ethylphenyl)-N-[(2R,3R,4S,5S,6R)-6-(hydroxymethyl)-3,4,5-tris(oxidanyl)oxan-2-yl]butanamide

>  <Synonyms>  (72) 


>  <Type>  (72) 
SACCHARIDE

>  <Formula>  (72) 
C18 H27 N O6

>  <ObservedFormula>  (72) 
C18 N O6

>  <MolecularWeight>  (72) 
353.41

>  <ModifiedDate>  (72) 
2014-07-18

>  <Parent>  (72) 


>  <OneLetterCode>  (72) 


>  <SubcomponentList>  (72) 


>  <AmbiguousFlag>  (72) 
N

>  <InsertionCode>  (72) 


>  <InstanceId>  (72) 
4MI9_26W_A_901

>  <ChemCompId>  (72) 
26W

>  <PdbId>  (72) 
4MI9

>  <ResidueNumber>  (72) 
901

>  <InChI>  (72) 
InChI=1S/C18H27NO6/c1-3-11-4-6-12(7-5-11)10(2)8-14(21)19-18-17(24)16(23)15(22)13(9-20)25-18/h4-7,10,13,15-18,20,22-24H,3,8-9H2,1-2H3,(H,19,21)/t10-,13-,15-,16+,17-,18-/m1/s1

>  <InChIKey>  (72) 
HOHFTRIQTPLVFO-JJLIPNPMSA-N

>  <SMILES>  (72) 
CCc1ccc(cc1)[C@H](C)CC(=O)N[C@H]2[C@@H]([C@H]([C@@H]([C@H](O2)CO)O)O)O

>  <MissingHeavyAtoms>  (72) 
0

>  <Model>  (72) 
1

>  <AltIds>  (72) 


>  <pKI>  (72) 
3.42

>  <ChemblID>  (72) 
-

>  <standardized_canonical_smiles>  (72) 
CCc1ccc([C@H](C)CC(=O)N[C@@H]2O[C@H](CO)[C@@H](O)[C@H](O)[C@H]2O)cc1

$$$$
4YI5_4D1_A_902
     RDKit          3D

 28 29  0  0  0  0  0  0  0  0999 V2000
   37.8380   26.4860   34.8320 C   0  0  0  0  0  0  0  0  0  0  0  0
   34.2800   25.1980   32.2890 C   0  0  0  0  0  0  0  0  0  0  0  0
   37.1800   27.7510   37.2400 C   0  0  0  0  0  0  0  0  0  0  0  0
   35.5380   25.6120   33.0700 C   0  0  0  0  0  0  0  0  0  0  0  0
   35.3950   26.2630   34.4040 C   0  0  0  0  0  0  0  0  0  0  0  0
   36.4840   26.6830   35.1780 C   0  0  0  0  0  0  0  0  0  0  0  0
   36.1700   27.3030   36.3870 C   0  0  0  0  0  0  0  0  0  0  0  0
   38.5250   27.5650   36.9100 C   0  0  0  0  0  0  0  0  0  0  0  0
   38.8490   26.9590   35.6870 C   0  0  0  0  0  0  0  0  0  0  0  0
   34.1050   23.5780   29.1180 N   0  0  0  0  0  0  0  0  0  0  0  0
   39.9730   29.4040   37.2890 C   0  0  0  0  0  0  0  0  0  0  0  0
   39.5270   28.0510   37.8060 C   0  0  0  0  0  0  0  0  0  0  0  0
   40.7560   27.1270   37.9110 C   0  0  0  0  0  0  0  0  0  0  0  0
   33.1500   25.4730   32.7200 O   0  0  0  0  0  0  0  0  0  0  0  0
   34.5950   24.6330   31.1040 N   0  0  0  0  0  0  0  0  0  0  0  0
   33.6360   24.1480   30.2400 C   0  0  0  0  0  0  0  0  0  0  0  0
   32.4350   24.1490   30.4930 O   0  0  0  0  0  0  0  0  0  0  0  0
   33.2360   22.9640   28.1040 C   0  0  0  0  0  0  0  0  0  0  0  0
   33.2360   21.5390   28.3740 O   0  0  0  0  0  0  0  0  0  0  0  0
   32.1850   20.9150   27.6320 C   0  0  0  0  0  0  0  0  0  0  0  0
   32.0510   19.4370   27.9710 C   0  0  0  0  0  0  0  0  0  0  0  0
   33.2030   18.7790   27.4290 O   0  0  0  0  0  0  0  0  0  0  0  0
   32.4270   21.1110   26.0800 C   0  0  0  0  0  0  0  0  0  0  0  0
   31.2870   20.5950   25.3540 O   0  0  0  0  0  0  0  0  0  0  0  0
   32.6990   22.5530   25.7360 C   0  0  0  0  0  0  0  0  0  0  0  0
   33.1760   22.6040   24.3780 O   0  0  0  0  0  0  0  0  0  0  0  0
   33.7710   23.1550   26.6960 C   0  0  0  0  0  0  0  0  0  0  0  0
   33.9490   24.5520   26.4340 O   0  0  0  0  0  0  0  0  0  0  0  0
  6  1  2  0
  9  1  1  0
  4  2  1  0
 14  2  2  0
 15  2  1  0
  7  3  2  0
  8  3  1  0
  5  4  2  0
  6  5  1  0
  7  6  1  0
  9  8  2  0
 12  8  1  0
 16 10  1  0
 18 10  1  0
 12 11  1  0
 13 12  1  0
 16 15  1  0
 17 16  2  0
 19 18  1  0
 27 18  1  0
 20 19  1  0
 21 20  1  0
 23 20  1  0
 22 21  1  0
 24 23  1  0
 25 23  1  0
 26 25  1  0
 27 25  1  0
 28 27  1  0
A    1
C14
A    2
C5
A    3
C11
A    4
C7
A    5
C8
A    6
C9
A    7
C10
A    8
C12
A    9
C13
A   10
N1
A   11
C16
A   12
C15
A   13
C17
A   14
O6
A   15
N4
A   16
C2
A   17
O3
A   18
C1'
A   19
O5'
A   20
C5'
A   21
C6'
A   22
O6'
A   23
C4'
A   24
O4'
A   25
C3'
A   26
O3'
A   27
C2'
A   28
O2'
M  END
>  <Id>  (73) 
4YI5_4D1_A_902

>  <ChainId>  (73) 
A

>  <AsymId>  (73) 
C

>  <SeqNum>  (73) 
902

>  <Name>  (73) 
N-({(2E)-3-[4-(propan-2-yl)phenyl]prop-2-enoyl}carbamoyl)-beta-D-glucopyranosylamine

>  <SystematicName>  (73) 
(E)-N-[[(2R,3R,4S,5S,6R)-6-(hydroxymethyl)-3,4,5-tris(oxidanyl)oxan-2-yl]carbamoyl]-3-(4-propan-2-ylphenyl)prop-2-enamide

>  <Synonyms>  (73) 


>  <Type>  (73) 
NON-POLYMER

>  <Formula>  (73) 
C19 H26 N2 O7

>  <ObservedFormula>  (73) 
C19 N2 O7

>  <MolecularWeight>  (73) 
394.419

>  <ModifiedDate>  (73) 
2015-11-13

>  <Parent>  (73) 


>  <OneLetterCode>  (73) 


>  <SubcomponentList>  (73) 


>  <AmbiguousFlag>  (73) 
N

>  <InsertionCode>  (73) 


>  <InstanceId>  (73) 
4YI5_4D1_A_902

>  <ChemCompId>  (73) 
4D1

>  <PdbId>  (73) 
4YI5

>  <ResidueNumber>  (73) 
902

>  <InChI>  (73) 
InChI=1S/C19H26N2O7/c1-10(2)12-6-3-11(4-7-12)5-8-14(23)20-19(27)21-18-17(26)16(25)15(24)13(9-22)28-18/h3-8,10,13,15-18,22,24-26H,9H2,1-2H3,(H2,20,21,23,27)/b8-5+/t13-,15-,16+,17-,18-/m1/s1

>  <InChIKey>  (73) 
RIYKPZZUXJMBTL-AWRGUQPNSA-N

>  <MissingHeavyAtoms>  (73) 
0

>  <Model>  (73) 
1

>  <AltIds>  (73) 


>  <pKI>  (73) 
5.6

>  <ChemblID>  (73) 
-

>  <standardized_canonical_smiles>  (73) 
CC(C)c1ccc(/C=C/C(=O)NC(=O)N[C@@H]2O[C@H](CO)[C@@H](O)[C@H](O)[C@H]2O)cc1

$$$$
4EKY_D1J_A_901
     RDKit          3D

 24 25  0  0  0  0  0  0  0  0999 V2000
   34.0700   23.5550   28.8790 N   0  0  0  0  0  0  0  0  0  0  0  0
   33.3470   24.4250   29.7750 C   0  0  0  0  0  0  0  0  0  0  0  0
   32.1060   24.5280   29.7210 O   0  0  0  0  0  0  0  0  0  0  0  0
   34.0940   25.1710   30.7540 N   0  0  0  0  0  0  0  0  0  0  0  0
   35.5070   25.0420   30.8350 C   0  0  0  0  0  0  0  0  0  0  0  0
   36.1110   25.6820   31.6980 O   0  0  0  0  0  0  0  0  0  0  0  0
   36.2060   24.1880   29.9420 C   0  0  0  0  0  0  0  0  0  0  0  0
   35.4960   23.4670   28.9620 C   0  0  0  0  0  0  0  0  0  0  0  0
   37.5140   24.0310   30.0060 C   0  0  0  0  0  0  0  0  0  0  0  0
   38.8320   23.8610   30.0360 C   0  0  0  0  0  0  0  0  0  0  0  0
   39.6230   24.1000   31.1490 C   0  0  0  0  0  0  0  0  0  0  0  0
   33.3180   22.7990   27.8380 C   0  0  0  0  0  0  0  0  0  0  0  0
   40.1540   23.0990   31.9620 C   0  0  0  0  0  0  0  0  0  0  0  0
   41.1790   23.4410   32.8570 C   0  0  0  0  0  0  0  0  0  0  0  0
   33.7730   23.0840   26.3540 C   0  0  0  0  0  0  0  0  0  0  0  0
   33.9980   24.5050   26.1660 O   0  0  0  0  0  0  0  0  0  0  0  0
   32.7090   22.4520   25.3680 C   0  0  0  0  0  0  0  0  0  0  0  0
   33.0690   22.5010   23.9910 O   0  0  0  0  0  0  0  0  0  0  0  0
   32.3770   21.0130   25.8070 C   0  0  0  0  0  0  0  0  0  0  0  0
   31.2330   20.5270   25.0800 O   0  0  0  0  0  0  0  0  0  0  0  0
   32.1510   20.8630   27.3630 C   0  0  0  0  0  0  0  0  0  0  0  0
   33.2720   21.3920   28.0560 O   0  0  0  0  0  0  0  0  0  0  0  0
   32.1250   19.3740   27.8540 C   0  0  0  0  0  0  0  0  0  0  0  0
   33.1970   18.6010   27.2460 O   0  0  0  0  0  0  0  0  0  0  0  0
  2  1  1  0
  8  1  1  0
 12  1  1  0
  3  2  2  0
  4  2  1  0
  5  4  1  0
  6  5  2  0
  7  5  1  0
  8  7  2  0
  9  7  1  0
 10  9  3  0
 11 10  1  0
 13 11  1  0
 15 12  1  0
 22 12  1  0
 14 13  1  0
 16 15  1  0
 17 15  1  0
 18 17  1  0
 19 17  1  0
 20 19  1  0
 21 19  1  0
 22 21  1  0
 23 21  1  0
 24 23  1  0
A    1
N1
A    2
C2
A    3
O2
A    4
N3
A    5
C4
A    6
O4
A    7
C5
A    8
C6
A    9
C7
A   10
C8
A   11
C9
A   12
C1'
A   13
C10
A   14
C11
A   15
C2'
A   16
O2'
A   17
C3'
A   18
O3'
A   19
C4'
A   20
O4'
A   21
C5'
A   22
O5'
A   23
C6'
A   24
O6'
M  END
>  <Id>  (74) 
4EKY_D1J_A_901

>  <ChainId>  (74) 
A

>  <AsymId>  (74) 
B

>  <SeqNum>  (74) 
901

>  <Name>  (74) 
1-(beta-D-glucopyranosyl)-5-(pent-1-yn-1-yl)pyrimidine-2,4(1H,3H)-dione

>  <SystematicName>  (74) 
1-[(2R,3R,4S,5S,6R)-6-(hydroxymethyl)-3,4,5-tris(oxidanyl)oxan-2-yl]-5-pent-1-ynyl-pyrimidine-2,4-dione

>  <Synonyms>  (74) 


>  <Type>  (74) 
NON-POLYMER

>  <Formula>  (74) 
C15 H20 N2 O7

>  <ObservedFormula>  (74) 
C15 N2 O7

>  <MolecularWeight>  (74) 
340.329

>  <ModifiedDate>  (74) 
2012-07-20

>  <Parent>  (74) 


>  <OneLetterCode>  (74) 


>  <SubcomponentList>  (74) 


>  <AmbiguousFlag>  (74) 
N

>  <InsertionCode>  (74) 


>  <InstanceId>  (74) 
4EKY_D1J_A_901

>  <ChemCompId>  (74) 
D1J

>  <PdbId>  (74) 
4EKY

>  <ResidueNumber>  (74) 
901

>  <InChI>  (74) 
InChI=1S/C15H20N2O7/c1-2-3-4-5-8-6-17(15(23)16-13(8)22)14-12(21)11(20)10(19)9(7-18)24-14/h6,9-12,14,18-21H,2-3,7H2,1H3,(H,16,22,23)/t9-,10-,11+,12-,14-/m1/s1

>  <InChIKey>  (74) 
XHEMRIMZCOFGEX-YGEZULPYSA-N

>  <SMILES>  (74) 
CCCC#CC1=CN(C(=O)NC1=O)[C@H]2[C@@H]([C@H]([C@@H]([C@H](O2)CO)O)O)O

>  <MissingHeavyAtoms>  (74) 
0

>  <Model>  (74) 
1

>  <AltIds>  (74) 


>  <pKI>  (74) 
3.52

>  <ChemblID>  (74) 
-

>  <standardized_canonical_smiles>  (74) 
CCCC#Cc1cn([C@@H]2O[C@H](CO)[C@@H](O)[C@H](O)[C@H]2O)c(=O)[nH]c1=O

$$$$
4EJ2_D1F_A_901
     RDKit          3D

 26 27  0  0  0  0  0  0  0  0999 V2000
   34.0600   23.7760   28.9530 N   0  0  0  0  0  0  0  0  0  0  0  0
   33.2520   24.4370   29.8330 C   0  0  0  0  0  0  0  0  0  0  0  0
   32.0170   24.4210   29.7030 O   0  0  0  0  0  0  0  0  0  0  0  0
   33.7980   25.1930   30.9040 N   0  0  0  0  0  0  0  0  0  0  0  0
   35.1860   25.2460   31.0670 C   0  0  0  0  0  0  0  0  0  0  0  0
   35.7380   25.8740   31.9770 O   0  0  0  0  0  0  0  0  0  0  0  0
   35.9920   24.5660   30.1890 C   0  0  0  0  0  0  0  0  0  0  0  0
   35.4940   23.8150   29.1100 C   0  0  0  0  0  0  0  0  0  0  0  0
   37.3950   24.8240   30.6520 C   0  0  0  0  0  0  0  0  0  0  0  0
   38.4760   24.9740   31.0040 C   0  0  0  0  0  0  0  0  0  0  0  0
   39.8680   25.2700   31.5330 C   0  0  0  0  0  0  0  0  0  0  0  0
   33.3370   23.0080   27.8710 C   0  0  0  0  0  0  0  0  0  0  0  0
   40.6560   23.9770   31.8800 C   0  0  0  0  0  0  0  0  0  0  0  0
   42.1020   24.1790   32.3720 C   0  0  0  0  0  0  0  0  0  0  0  0
   42.9250   22.9200   32.6980 C   0  0  0  0  0  0  0  0  0  0  0  0
   44.1940   22.8200   31.8470 C   0  0  0  0  0  0  0  0  0  0  0  0
   33.8730   23.1370   26.4240 C   0  0  0  0  0  0  0  0  0  0  0  0
   34.2650   24.5200   26.1610 O   0  0  0  0  0  0  0  0  0  0  0  0
   32.7610   22.5320   25.4480 C   0  0  0  0  0  0  0  0  0  0  0  0
   33.1250   22.5360   24.0420 O   0  0  0  0  0  0  0  0  0  0  0  0
   32.4350   21.0780   25.8730 C   0  0  0  0  0  0  0  0  0  0  0  0
   31.3390   20.5260   25.0620 O   0  0  0  0  0  0  0  0  0  0  0  0
   32.1650   20.9600   27.4260 C   0  0  0  0  0  0  0  0  0  0  0  0
   33.1990   21.6020   28.2040 O   0  0  0  0  0  0  0  0  0  0  0  0
   32.1070   19.4980   27.8790 C   0  0  0  0  0  0  0  0  0  0  0  0
   33.2090   18.7620   27.3340 O   0  0  0  0  0  0  0  0  0  0  0  0
  2  1  1  0
  8  1  1  0
 12  1  1  0
  3  2  2  0
  4  2  1  0
  5  4  1  0
  6  5  2  0
  7  5  1  0
  8  7  2  0
  9  7  1  0
 10  9  3  0
 11 10  1  0
 13 11  1  0
 17 12  1  0
 24 12  1  0
 14 13  1  0
 15 14  1  0
 16 15  1  0
 18 17  1  0
 19 17  1  0
 20 19  1  0
 21 19  1  0
 22 21  1  0
 23 21  1  0
 24 23  1  0
 25 23  1  0
 26 25  1  0
A    1
N1
A    2
C2
A    3
O2
A    4
N3
A    5
C4
A    6
O4
A    7
C5
A    8
C6
A    9
C7
A   10
C8
A   11
C9
A   12
C1'
A   13
C10
A   14
C11
A   15
C12
A   16
C13
A   17
C2'
A   18
O2'
A   19
C3'
A   20
O3'
A   21
C4'
A   22
O4'
A   23
C5'
A   24
O5'
A   25
C6'
A   26
O6'
M  END
>  <Id>  (75) 
4EJ2_D1F_A_901

>  <ChainId>  (75) 
A

>  <AsymId>  (75) 
B

>  <SeqNum>  (75) 
901

>  <Name>  (75) 
1-(beta-D-glucopyranosyl)-5-(hept-1-yn-1-yl)pyrimidine-2,4(1H,3H)-dione

>  <SystematicName>  (75) 
5-hept-1-ynyl-1-[(2R,3R,4S,5S,6R)-6-(hydroxymethyl)-3,4,5-tris(oxidanyl)oxan-2-yl]pyrimidine-2,4-dione

>  <Synonyms>  (75) 


>  <Type>  (75) 
NON-POLYMER

>  <Formula>  (75) 
C17 H24 N2 O7

>  <ObservedFormula>  (75) 
C17 N2 O7

>  <MolecularWeight>  (75) 
368.382

>  <ModifiedDate>  (75) 
2012-07-20

>  <Parent>  (75) 


>  <OneLetterCode>  (75) 


>  <SubcomponentList>  (75) 


>  <AmbiguousFlag>  (75) 
N

>  <InsertionCode>  (75) 


>  <InstanceId>  (75) 
4EJ2_D1F_A_901

>  <ChemCompId>  (75) 
D1F

>  <PdbId>  (75) 
4EJ2

>  <ResidueNumber>  (75) 
901

>  <InChI>  (75) 
InChI=1S/C17H24N2O7/c1-2-3-4-5-6-7-10-8-19(17(25)18-15(10)24)16-14(23)13(22)12(21)11(9-20)26-16/h8,11-14,16,20-23H,2-5,9H2,1H3,(H,18,24,25)/t11-,12-,13+,14-,16-/m1/s1

>  <InChIKey>  (75) 
ZIAKFTYLGUACKB-XYFZXANASA-N

>  <SMILES>  (75) 
CCCCCC#CC1=CN(C(=O)NC1=O)[C@H]2[C@@H]([C@H]([C@@H]([C@H](O2)CO)O)O)O

>  <MissingHeavyAtoms>  (75) 
0

>  <Model>  (75) 
1

>  <AltIds>  (75) 


>  <pKI>  (75) 
2.49

>  <ChemblID>  (75) 
-

>  <standardized_canonical_smiles>  (75) 
CCCCCC#Cc1cn([C@@H]2O[C@H](CO)[C@@H](O)[C@H](O)[C@H]2O)c(=O)[nH]c1=O

$$$$
7GPB_SO4_D_900
     RDKit          3D

  5  4  0  0  0  0  0  0  0  0999 V2000
   83.8480   76.5560   28.8600 S   0  0  0  0  0  0  0  0  0  0  0  0
   82.4970   77.0260   29.1640 O   0  0  0  0  0  0  0  0  0  0  0  0
   84.4050   77.3180   27.7400 O   0  0  0  0  0  0  0  0  0  0  0  0
   83.7650   75.1600   28.4220 O   0  0  0  0  0  0  0  0  0  0  0  0
   84.7320   76.6280   30.0450 O   0  0  0  0  0  0  0  0  0  0  0  0
  2  1  2  0
  3  1  2  0
  4  1  1  0
  5  1  1  0
M  CHG  2   4  -1   5  -1
A    1
S
A    2
O1
A    3
O2
A    4
O3
A    5
O4
M  END
>  <Id>  (76) 
7GPB_SO4_D_900

>  <ChainId>  (76) 
D

>  <AsymId>  (76) 
Q

>  <SeqNum>  (76) 
900

>  <Name>  (76) 
SULFATE ION

>  <SystematicName>  (76) 
sulfate

>  <Synonyms>  (76) 


>  <Type>  (76) 
NON-POLYMER

>  <Formula>  (76) 
O4 S

>  <ObservedFormula>  (76) 
S O4

>  <MolecularWeight>  (76) 
96.063

>  <ModifiedDate>  (76) 
2011-06-04

>  <Parent>  (76) 


>  <OneLetterCode>  (76) 


>  <SubcomponentList>  (76) 


>  <AmbiguousFlag>  (76) 
N

>  <InsertionCode>  (76) 


>  <InstanceId>  (76) 
7GPB_SO4_D_900

>  <ChemCompId>  (76) 
SO4

>  <PdbId>  (76) 
7GPB

>  <ResidueNumber>  (76) 
900

>  <InChI>  (76) 
InChI=1S/H2O4S/c1-5(2,3)4/h(H2,1,2,3,4)/p-2

>  <InChIKey>  (76) 
QAOWNCQODCNURD-UHFFFAOYSA-L

>  <SMILES>  (76) 
[O-]S(=O)(=O)[O-]

>  <MissingHeavyAtoms>  (76) 
0

>  <Model>  (76) 
1

>  <AltIds>  (76) 


>  <pKI>  (76) 
3.04

>  <ChemblID>  (76) 
-

>  <standardized_canonical_smiles>  (76) 
CCOC(=O)C(=O)N[C@@H]1O[C@H](CO)[C@@H](O)[C@H](O)[C@H]1O

$$$$
2F3S_7GP_A_998
     RDKit          3D

 19 19  0  0  0  0  0  0  0  0999 V2000
   33.4870   22.8260   27.7470 C   0  0  0  0  0  0  0  0  0  0  0  0
   33.7840   23.0310   26.2440 C   0  0  0  0  0  0  0  0  0  0  0  0
   33.9230   24.4540   25.9790 O   0  0  0  0  0  0  0  0  0  0  0  0
   32.5980   22.4360   25.4370 C   0  0  0  0  0  0  0  0  0  0  0  0
   32.8650   22.5890   24.0300 O   0  0  0  0  0  0  0  0  0  0  0  0
   32.4730   20.9480   25.7830 C   0  0  0  0  0  0  0  0  0  0  0  0
   31.3730   20.4140   25.0430 O   0  0  0  0  0  0  0  0  0  0  0  0
   32.2100   20.8090   27.3410 C   0  0  0  0  0  0  0  0  0  0  0  0
   33.3220   21.3900   28.0800 O   0  0  0  0  0  0  0  0  0  0  0  0
   32.0890   19.3300   27.7740 C   0  0  0  0  0  0  0  0  0  0  0  0
   33.1980   18.5700   27.2470 O   0  0  0  0  0  0  0  0  0  0  0  0
   34.5870   23.3830   28.4890 N   0  0  0  0  0  0  0  0  0  0  0  0
   34.3810   23.9720   29.6800 C   0  0  0  0  0  0  0  0  0  0  0  0
   33.2590   24.0680   30.2080 O   0  0  0  0  0  0  0  0  0  0  0  0
   35.5390   24.5360   30.3800 C   0  0  0  0  0  0  0  0  0  0  0  0
   35.3090   25.4820   31.1480 O   0  0  0  0  0  0  0  0  0  0  0  0
   37.9370   24.5900   30.8430 C   0  0  0  0  0  0  0  0  0  0  0  0
   36.7810   23.9960   30.1350 O   0  0  0  0  0  0  0  0  0  0  0  0
   38.2760   23.6860   32.0550 C   0  0  0  0  0  0  0  0  0  0  0  0
  2  1  1  0
  9  1  1  0
 12  1  1  0
  3  2  1  0
  4  2  1  0
  5  4  1  0
  6  4  1  0
  7  6  1  0
  8  6  1  0
  9  8  1  0
 10  8  1  0
 11 10  1  0
 13 12  1  0
 14 13  2  0
 15 13  1  0
 16 15  2  0
 18 15  1  0
 18 17  1  0
 19 17  1  0
A    1
C1
A    2
C2
A    3
O2
A    4
C3
A    5
O3
A    6
C4
A    7
O4
A    8
C5
A    9
O5
A   10
C6
A   11
O6
A   12
N1
A   13
C7
A   14
O7
A   15
C8
A   16
O8
A   17
C9
A   18
O9
A   19
C10
M  END
>  <Id>  (77) 
2F3S_7GP_A_998

>  <ChainId>  (77) 
A

>  <AsymId>  (77) 
C

>  <SeqNum>  (77) 
998

>  <Name>  (77) 
ETHYL-N-(BETA-D-GLUCOPYRANOSYL)OXAMATE

>  <SystematicName>  (77) 
ethyl 2-oxo-2-[[(2R,3R,4S,5S,6R)-3,4,5-trihydroxy-6-(hydroxymethyl)oxan-2-yl]amino]ethanoate

>  <Synonyms>  (77) 


>  <Type>  (77) 
NON-POLYMER

>  <Formula>  (77) 
C10 H17 N O8

>  <ObservedFormula>  (77) 
C10 N O8

>  <MolecularWeight>  (77) 
279.244

>  <ModifiedDate>  (77) 
2011-06-04

>  <Parent>  (77) 


>  <OneLetterCode>  (77) 


>  <SubcomponentList>  (77) 


>  <AmbiguousFlag>  (77) 
N

>  <InsertionCode>  (77) 


>  <InstanceId>  (77) 
2F3S_7GP_A_998

>  <ChemCompId>  (77) 
7GP

>  <PdbId>  (77) 
2F3S

>  <ResidueNumber>  (77) 
998

>  <InChI>  (77) 
InChI=1S/C10H17NO8/c1-2-18-10(17)8(16)11-9-7(15)6(14)5(13)4(3-12)19-9/h4-7,9,12-15H,2-3H2,1H3,(H,11,16)/t4-,5-,6+,7-,9-/m1/s1

>  <InChIKey>  (77) 
TVQLSCFCYGZTNJ-XSEHCYKFSA-N

>  <SMILES>  (77) 
CCOC(=O)C(=O)N[C@H]1[C@@H]([C@H]([C@@H]([C@H](O1)CO)O)O)O

>  <MissingHeavyAtoms>  (77) 
0

>  <Model>  (77) 
1

>  <AltIds>  (77) 


>  <pKI>  (77) 
3.04

>  <ChemblID>  (77) 
-

>  <standardized_canonical_smiles>  (77) 
CCOC(=O)C(=O)N[C@@H]1O[C@H](CO)[C@@H](O)[C@H](O)[C@H]1O

$$$$
7GPB_PLP_D_999
     RDKit          3D

 15 15  0  0  0  0  0  0  0  0999 V2000
   64.2720   46.2510    8.7870 N   0  0  0  0  0  0  0  0  0  0  0  0
   65.1730   47.2550    8.8050 C   0  0  0  0  0  0  0  0  0  0  0  0
   66.5720   46.9070    9.1340 C   0  0  0  0  0  0  0  0  0  0  0  0
   64.7800   48.5640    8.5840 C   0  0  0  0  0  0  0  0  0  0  0  0
   65.6970   49.5950    8.6250 O   0  0  0  0  0  0  0  0  0  0  0  0
   63.4640   48.8180    8.2750 C   0  0  0  0  0  0  0  0  0  0  0  0
   62.9990   50.2280    7.9810 C   0  0  0  0  0  0  0  0  0  0  0  0
   62.5360   47.7590    8.2720 C   0  0  0  0  0  0  0  0  0  0  0  0
   62.9650   46.4890    8.5000 C   0  0  0  0  0  0  0  0  0  0  0  0
   61.0730   48.0030    8.0080 C   0  0  0  0  0  0  0  0  0  0  0  0
   60.0730   46.9520    8.0220 O   0  0  0  0  0  0  0  0  0  0  0  0
   58.5190   47.3470    7.6880 P   0  0  0  0  0  0  0  0  0  0  0  0
   58.1660   48.5120    8.5300 O   0  0  0  0  0  0  0  0  0  0  0  0
   58.4700   47.6630    6.2400 O   0  0  0  0  0  0  0  0  0  0  0  0
   57.7100   46.1520    7.9540 O   0  0  0  0  0  0  0  0  0  0  0  0
  2  1  2  0
  9  1  1  0
  3  2  1  0
  4  2  1  0
  5  4  1  0
  6  4  2  0
  7  6  1  0
  8  6  1  0
  9  8  2  0
 10  8  1  0
 11 10  1  0
 12 11  1  0
 13 12  2  0
 14 12  1  0
 15 12  1  0
A    1
N1
A    2
C2
A    3
C2A
A    4
C3
A    5
O3
A    6
C4
A    7
C4A
A    8
C5
A    9
C6
A   10
C5A
A   11
O4P
A   12
P
A   13
O1P
A   14
O2P
A   15
O3P
M  END
>  <Id>  (78) 
7GPB_PLP_D_999

>  <ChainId>  (78) 
D

>  <AsymId>  (78) 
R

>  <SeqNum>  (78) 
999

>  <Name>  (78) 
PYRIDOXAL-5'-PHOSPHATE

>  <SystematicName>  (78) 
(5-hydroxy-4-methanoyl-6-methyl-pyridin-3-yl)methyl dihydrogen phosphate

>  <Synonyms>  (78) 
VITAMIN B6 Phosphate

>  <Type>  (78) 
NON-POLYMER

>  <Formula>  (78) 
C8 H10 N O6 P

>  <ObservedFormula>  (78) 
P C8 N O5

>  <MolecularWeight>  (78) 
247.142

>  <ModifiedDate>  (78) 
2011-06-04

>  <Parent>  (78) 


>  <OneLetterCode>  (78) 


>  <SubcomponentList>  (78) 


>  <AmbiguousFlag>  (78) 
N

>  <InsertionCode>  (78) 


>  <InstanceId>  (78) 
7GPB_PLP_D_999

>  <ChemCompId>  (78) 
PLP

>  <PdbId>  (78) 
7GPB

>  <ResidueNumber>  (78) 
999

>  <InChI>  (78) 
InChI=1S/C8H10NO6P/c1-5-8(11)7(3-10)6(2-9-5)4-15-16(12,13)14/h2-3,11H,4H2,1H3,(H2,12,13,14)

>  <InChIKey>  (78) 
NGVDGCNFYWLIFO-UHFFFAOYSA-N

>  <MissingHeavyAtoms>  (78) 
1

>  <Model>  (78) 
1

>  <AltIds>  (78) 


>  <pKI>  (78) 
3.04

>  <ChemblID>  (78) 
-

>  <standardized_canonical_smiles>  (78) 
CCOC(=O)C(=O)N[C@@H]1O[C@H](CO)[C@@H](O)[C@H](O)[C@H]1O

$$$$
7GPB_AMP_D_920
     RDKit          3D

 23 25  0  0  0  0  0  0  0  0999 V2000
   73.9620   63.6430   33.9680 P   0  0  0  0  0  0  0  0  0  0  0  0
   74.5760   63.6470   35.3160 O   0  0  0  0  0  0  0  0  0  0  0  0
   72.5760   64.1610   33.9230 O   0  0  0  0  0  0  0  0  0  0  0  0
   74.1850   62.3990   33.1960 O   0  0  0  0  0  0  0  0  0  0  0  0
   74.8130   64.7640   33.1680 O   0  0  0  0  0  0  0  0  0  0  0  0
   75.0480   64.7040   31.7430 C   0  0  0  0  0  0  0  0  0  0  0  0
   76.0510   65.8020   31.3300 C   0  0  0  0  0  0  0  0  0  0  0  0
   75.4620   67.0570   31.7040 O   0  0  0  0  0  0  0  0  0  0  0  0
   77.4050   65.7450   32.0510 C   0  0  0  0  0  0  0  0  0  0  0  0
   78.3580   64.9530   31.3010 O   0  0  0  0  0  0  0  0  0  0  0  0
   77.8450   67.2180   31.9910 C   0  0  0  0  0  0  0  0  0  0  0  0
   78.3440   67.5540   30.6880 O   0  0  0  0  0  0  0  0  0  0  0  0
   76.4980   67.9280   32.1760 C   0  0  0  0  0  0  0  0  0  0  0  0
   76.1580   68.2930   33.5860 N   0  0  0  0  0  0  0  0  0  0  0  0
   75.7000   67.4830   34.6080 C   0  0  0  0  0  0  0  0  0  0  0  0
   75.4370   68.1390   35.7100 N   0  0  0  0  0  0  0  0  0  0  0  0
   75.7400   69.4570   35.4020 C   0  0  0  0  0  0  0  0  0  0  0  0
   75.6680   70.6410   36.1520 C   0  0  0  0  0  0  0  0  0  0  0  0
   75.2390   70.6800   37.4120 N   0  0  0  0  0  0  0  0  0  0  0  0
   76.0420   71.7770   35.5500 N   0  0  0  0  0  0  0  0  0  0  0  0
   76.4540   71.7320   34.2890 C   0  0  0  0  0  0  0  0  0  0  0  0
   76.5660   70.6930   33.4750 N   0  0  0  0  0  0  0  0  0  0  0  0
   76.1830   69.5630   34.1100 C   0  0  0  0  0  0  0  0  0  0  0  0
  2  1  2  0
  3  1  1  0
  4  1  1  0
  5  1  1  0
  6  5  1  0
  7  6  1  0
  8  7  1  0
  9  7  1  0
 13  8  1  0
 10  9  1  0
 11  9  1  0
 12 11  1  0
 13 11  1  0
 14 13  1  0
 15 14  1  0
 23 14  1  0
 16 15  2  0
 17 16  1  0
 18 17  1  0
 23 17  2  0
 19 18  1  0
 20 18  2  0
 21 20  1  0
 22 21  2  0
 23 22  1  0
A    1
P
A    2
O1P
A    3
O2P
A    4
O3P
A    5
O5'
A    6
C5'
A    7
C4'
A    8
O4'
A    9
C3'
A   10
O3'
A   11
C2'
A   12
O2'
A   13
C1'
A   14
N9
A   15
C8
A   16
N7
A   17
C5
A   18
C6
A   19
N6
A   20
N1
A   21
C2
A   22
N3
A   23
C4
M  END
>  <Id>  (79) 
7GPB_AMP_D_920

>  <ChainId>  (79) 
D

>  <AsymId>  (79) 
S

>  <SeqNum>  (79) 
920

>  <Name>  (79) 
ADENOSINE MONOPHOSPHATE

>  <SystematicName>  (79) 
[(2R,3S,4R,5R)-5-(6-aminopurin-9-yl)-3,4-bis(oxidanyl)oxolan-2-yl]methyl dihydrogen phosphate

>  <Synonyms>  (79) 


>  <Type>  (79) 
NON-POLYMER

>  <Formula>  (79) 
C10 H14 N5 O7 P

>  <ObservedFormula>  (79) 
P C10 N5 O7

>  <MolecularWeight>  (79) 
347.221

>  <ModifiedDate>  (79) 
2011-12-08

>  <Parent>  (79) 


>  <OneLetterCode>  (79) 


>  <SubcomponentList>  (79) 


>  <AmbiguousFlag>  (79) 
N

>  <InsertionCode>  (79) 


>  <InstanceId>  (79) 
7GPB_AMP_D_920

>  <ChemCompId>  (79) 
AMP

>  <PdbId>  (79) 
7GPB

>  <ResidueNumber>  (79) 
920

>  <InChI>  (79) 
InChI=1S/C10H14N5O7P/c11-8-5-9(13-2-12-8)15(3-14-5)10-7(17)6(16)4(22-10)1-21-23(18,19)20/h2-4,6-7,10,16-17H,1H2,(H2,11,12,13)(H2,18,19,20)/t4-,6-,7-,10-/m1/s1

>  <InChIKey>  (79) 
UDMBCSSLTHHNCD-KQYNXXCUSA-N

>  <SMILES>  (79) 
c1nc(c2c(n1)n(cn2)[C@H]3[C@@H]([C@@H]([C@H](O3)COP(=O)(O)O)O)O)N

>  <MissingHeavyAtoms>  (79) 
0

>  <Model>  (79) 
1

>  <AltIds>  (79) 


>  <pKI>  (79) 
3.04

>  <ChemblID>  (79) 
-

>  <standardized_canonical_smiles>  (79) 
CCOC(=O)C(=O)N[C@@H]1O[C@H](CO)[C@@H](O)[C@H](O)[C@H]1O

$$$$
1P4H_CR6_A_998
     RDKit          3D

 18 18  0  0  0  0  0  0  0  0999 V2000
   31.7800   23.5280   28.6720 N   0  0  0  0  0  0  0  0  0  0  0  0
   34.0540   22.9000   26.0780 C   0  0  0  0  0  0  0  0  0  0  0  0
   34.3590   24.2840   25.7900 O   0  0  0  0  0  0  0  0  0  0  0  0
   32.4460   21.0570   25.7270 C   0  0  0  0  0  0  0  0  0  0  0  0
   32.2830   20.9510   27.2750 C   0  0  0  0  0  0  0  0  0  0  0  0
   32.0540   19.4800   27.6920 C   0  0  0  0  0  0  0  0  0  0  0  0
   33.9160   22.7970   27.5630 C   0  0  0  0  0  0  0  0  0  0  0  0
   32.7620   22.4970   25.3630 C   0  0  0  0  0  0  0  0  0  0  0  0
   32.9610   22.5800   23.9630 O   0  0  0  0  0  0  0  0  0  0  0  0
   31.2470   20.7110   25.0000 O   0  0  0  0  0  0  0  0  0  0  0  0
   33.5470   21.3690   27.8630 O   0  0  0  0  0  0  0  0  0  0  0  0
   35.2700   23.1360   28.0570 N   0  0  0  0  0  0  0  0  0  0  0  0
   33.1740   18.7420   27.0810 O   0  0  0  0  0  0  0  0  0  0  0  0
   35.5270   23.5250   29.3250 C   0  0  0  0  0  0  0  0  0  0  0  0
   34.4600   23.6530   30.3100 O   0  0  0  0  0  0  0  0  0  0  0  0
   36.6890   23.7920   29.6880 C   0  0  0  0  0  0  0  0  0  0  0  0
   32.9490   23.8770   28.0970 C   0  0  0  0  0  0  0  0  0  0  0  0
   33.2650   25.1220   27.9790 O   0  0  0  0  0  0  0  0  0  0  0  0
 17  1  1  0
  3  2  1  0
  7  2  1  0
  8  2  1  0
  5  4  1  0
  8  4  1  0
 10  4  1  0
  6  5  1  0
 11  5  1  0
 13  6  1  0
 11  7  1  0
 12  7  1  0
 17  7  1  0
  9  8  1  0
 14 12  1  0
 15 14  2  0
 16 14  1  0
 18 17  2  0
A    1
N1
A    2
C2
A    3
O2
A    4
C4
A    5
C5
A    6
C6
A    7
C1
A    8
C3
A    9
O3
A   10
O4
A   11
O5
A   12
N2
A   13
O6
A   14
C7
A   15
O7
A   16
C8
A   17
C9
A   18
O9
M  END
>  <Id>  (80) 
1P4H_CR6_A_998

>  <ChainId>  (80) 
A

>  <AsymId>  (80) 
B

>  <SeqNum>  (80) 
998

>  <Name>  (80) 
1-DEOXY-1-ACETYLAMINO-BETA-D-GLUCO-2-HEPTULOPYRANOSONAMIDE

>  <SystematicName>  (80) 
(2S,3R,4S,5S,6R)-2-acetamido-3,4,5-trihydroxy-6-(hydroxymethyl)oxane-2-carboxamide

>  <Synonyms>  (80) 


>  <Type>  (80) 
D-SACCHARIDE

>  <Formula>  (80) 
C9 H16 N2 O7

>  <ObservedFormula>  (80) 
C9 N2 O7

>  <MolecularWeight>  (80) 
264.233

>  <ModifiedDate>  (80) 
2011-06-04

>  <Parent>  (80) 


>  <OneLetterCode>  (80) 


>  <SubcomponentList>  (80) 


>  <AmbiguousFlag>  (80) 
N

>  <InsertionCode>  (80) 


>  <InstanceId>  (80) 
1P4H_CR6_A_998

>  <ChemCompId>  (80) 
CR6

>  <PdbId>  (80) 
1P4H

>  <ResidueNumber>  (80) 
998

>  <InChI>  (80) 
InChI=1S/C9H16N2O7/c1-3(13)11-9(8(10)17)7(16)6(15)5(14)4(2-12)18-9/h4-7,12,14-16H,2H2,1H3,(H2,10,17)(H,11,13)/t4-,5-,6+,7-,9+/m1/s1

>  <InChIKey>  (80) 
BUPVODXECQDZQR-YCOWOFQRSA-N

>  <SMILES>  (80) 
CC(=O)N[C@]1([C@@H]([C@H]([C@@H]([C@H](O1)CO)O)O)O)C(=O)N

>  <MissingHeavyAtoms>  (80) 
0

>  <Model>  (80) 
1

>  <AltIds>  (80) 


>  <pKI>  (80) 
3.51

>  <ChemblID>  (80) 
-

>  <standardized_canonical_smiles>  (80) 
CC(=O)N[C@]1(C(N)=O)O[C@H](CO)[C@@H](O)[C@H](O)[C@H]1O

$$$$
1FU8_CR6_A_998
     RDKit          3D

 18 18  0  0  0  0  0  0  0  0999 V2000
   33.3280   25.1470   28.4210 N   0  0  0  0  0  0  0  0  0  0  0  0
   34.1670   22.8940   26.2150 C   0  0  0  0  0  0  0  0  0  0  0  0
   34.5820   24.1540   25.7040 O   0  0  0  0  0  0  0  0  0  0  0  0
   32.5020   21.0630   25.8990 C   0  0  0  0  0  0  0  0  0  0  0  0
   32.3440   20.9970   27.4850 C   0  0  0  0  0  0  0  0  0  0  0  0
   32.1390   19.5920   27.9570 C   0  0  0  0  0  0  0  0  0  0  0  0
   33.9880   22.8450   27.7670 C   0  0  0  0  0  0  0  0  0  0  0  0
   32.8920   22.5330   25.4290 C   0  0  0  0  0  0  0  0  0  0  0  0
   33.1440   22.6420   24.0210 O   0  0  0  0  0  0  0  0  0  0  0  0
   31.3140   20.6820   25.3160 O   0  0  0  0  0  0  0  0  0  0  0  0
   33.5400   21.4780   28.1530 O   0  0  0  0  0  0  0  0  0  0  0  0
   35.2470   23.1510   28.3910 N   0  0  0  0  0  0  0  0  0  0  0  0
   33.2280   18.8130   27.5020 O   0  0  0  0  0  0  0  0  0  0  0  0
   35.6350   23.4770   29.6190 C   0  0  0  0  0  0  0  0  0  0  0  0
   34.8690   23.5660   30.5690 O   0  0  0  0  0  0  0  0  0  0  0  0
   37.1260   23.6800   29.7730 C   0  0  0  0  0  0  0  0  0  0  0  0
   32.8860   23.8980   28.1930 C   0  0  0  0  0  0  0  0  0  0  0  0
   31.7650   23.5190   28.5370 O   0  0  0  0  0  0  0  0  0  0  0  0
 17  1  1  0
  3  2  1  0
  7  2  1  0
  8  2  1  0
  5  4  1  0
  8  4  1  0
 10  4  1  0
  6  5  1  0
 11  5  1  0
 13  6  1  0
 11  7  1  0
 12  7  1  0
 17  7  1  0
  9  8  1  0
 14 12  1  0
 15 14  2  0
 16 14  1  0
 18 17  2  0
A    1
N1
A    2
C2
A    3
O2
A    4
C4
A    5
C5
A    6
C6
A    7
C1
A    8
C3
A    9
O3
A   10
O4
A   11
O5
A   12
N2
A   13
O6
A   14
C7
A   15
O7
A   16
C8
A   17
C9
A   18
O9
M  END
>  <Id>  (81) 
1FU8_CR6_A_998

>  <ChainId>  (81) 
A

>  <AsymId>  (81) 
B

>  <SeqNum>  (81) 
998

>  <Name>  (81) 
1-DEOXY-1-ACETYLAMINO-BETA-D-GLUCO-2-HEPTULOPYRANOSONAMIDE

>  <SystematicName>  (81) 
(2S,3R,4S,5S,6R)-2-acetamido-3,4,5-trihydroxy-6-(hydroxymethyl)oxane-2-carboxamide

>  <Synonyms>  (81) 


>  <Type>  (81) 
D-SACCHARIDE

>  <Formula>  (81) 
C9 H16 N2 O7

>  <ObservedFormula>  (81) 
C9 N2 O7

>  <MolecularWeight>  (81) 
264.233

>  <ModifiedDate>  (81) 
2011-06-04

>  <Parent>  (81) 


>  <OneLetterCode>  (81) 


>  <SubcomponentList>  (81) 


>  <AmbiguousFlag>  (81) 
N

>  <InsertionCode>  (81) 


>  <InstanceId>  (81) 
1FU8_CR6_A_998

>  <ChemCompId>  (81) 
CR6

>  <PdbId>  (81) 
1FU8

>  <ResidueNumber>  (81) 
998

>  <InChI>  (81) 
InChI=1S/C9H16N2O7/c1-3(13)11-9(8(10)17)7(16)6(15)5(14)4(2-12)18-9/h4-7,12,14-16H,2H2,1H3,(H2,10,17)(H,11,13)/t4-,5-,6+,7-,9+/m1/s1

>  <InChIKey>  (81) 
BUPVODXECQDZQR-YCOWOFQRSA-N

>  <SMILES>  (81) 
CC(=O)N[C@]1([C@@H]([C@H]([C@@H]([C@H](O1)CO)O)O)O)C(=O)N

>  <MissingHeavyAtoms>  (81) 
0

>  <Model>  (81) 
1

>  <AltIds>  (81) 


>  <pKI>  (81) 
3.51

>  <ChemblID>  (81) 
-

>  <standardized_canonical_smiles>  (81) 
CC(=O)N[C@]1(C(N)=O)O[C@H](CO)[C@@H](O)[C@H](O)[C@H]1O

$$$$
1KTI_AZC_A_998
     RDKit          3D

 18 18  0  0  0  0  0  0  0  0999 V2000
   33.4160   22.8210   27.8210 C   0  0  0  0  0  0  0  0  0  0  0  0
   33.7160   23.0440   26.3300 C   0  0  0  0  0  0  0  0  0  0  0  0
   33.8450   24.4240   26.0560 O   0  0  0  0  0  0  0  0  0  0  0  0
   32.6040   22.4320   25.4650 C   0  0  0  0  0  0  0  0  0  0  0  0
   32.9470   22.5150   24.0980 O   0  0  0  0  0  0  0  0  0  0  0  0
   32.3730   20.9670   25.8430 C   0  0  0  0  0  0  0  0  0  0  0  0
   31.2540   20.4710   25.1430 O   0  0  0  0  0  0  0  0  0  0  0  0
   32.1520   20.8170   27.3540 C   0  0  0  0  0  0  0  0  0  0  0  0
   33.2490   21.4160   28.0610 O   0  0  0  0  0  0  0  0  0  0  0  0
   32.0780   19.3360   27.7240 C   0  0  0  0  0  0  0  0  0  0  0  0
   33.2250   18.6610   27.2630 O   0  0  0  0  0  0  0  0  0  0  0  0
   34.5040   23.3140   28.6550 N   0  0  0  0  0  0  0  0  0  0  0  0
   34.2360   23.8900   29.8270 C   0  0  0  0  0  0  0  0  0  0  0  0
   33.0670   24.0450   30.1890 O   0  0  0  0  0  0  0  0  0  0  0  0
   35.2460   24.3260   30.5900 N   0  0  0  0  0  0  0  0  0  0  0  0
   36.5280   24.1600   30.2510 C   0  0  0  0  0  0  0  0  0  0  0  0
   37.5490   24.3450   31.3640 C   0  0  0  0  0  0  0  0  0  0  0  0
   36.8910   23.8660   29.1140 O   0  0  0  0  0  0  0  0  0  0  0  0
  2  1  1  0
  9  1  1  0
 12  1  1  0
  3  2  1  0
  4  2  1  0
  5  4  1  0
  6  4  1  0
  7  6  1  0
  8  6  1  0
  9  8  1  0
 10  8  1  0
 11 10  1  0
 13 12  1  0
 14 13  2  0
 15 13  1  0
 16 15  1  0
 17 16  1  0
 18 16  2  0
A    1
C1
A    2
C2
A    3
O2
A    4
C3
A    5
O3
A    6
C4
A    7
O4
A    8
C5
A    9
O5
A   10
C6
A   11
O6
A   12
N1
A   13
C7
A   14
O7
A   15
N2
A   16
C8
A   17
C9
A   18
O8
M  END
>  <Id>  (82) 
1KTI_AZC_A_998

>  <ChainId>  (82) 
A

>  <AsymId>  (82) 
B

>  <SeqNum>  (82) 
998

>  <Name>  (82) 
N-ACETYL-N'-BETA-D-GLUCOPYRANOSYL UREA

>  <SystematicName>  (82) 
N-[[(2R,3R,4S,5S,6R)-3,4,5-trihydroxy-6-(hydroxymethyl)oxan-2-yl]carbamoyl]ethanamide

>  <Synonyms>  (82) 


>  <Type>  (82) 
NON-POLYMER

>  <Formula>  (82) 
C9 H16 N2 O7

>  <ObservedFormula>  (82) 
C9 N2 O7

>  <MolecularWeight>  (82) 
264.233

>  <ModifiedDate>  (82) 
2011-06-04

>  <Parent>  (82) 


>  <OneLetterCode>  (82) 


>  <SubcomponentList>  (82) 


>  <AmbiguousFlag>  (82) 
N

>  <InsertionCode>  (82) 


>  <InstanceId>  (82) 
1KTI_AZC_A_998

>  <ChemCompId>  (82) 
AZC

>  <PdbId>  (82) 
1KTI

>  <ResidueNumber>  (82) 
998

>  <InChI>  (82) 
InChI=1S/C9H16N2O7/c1-3(13)10-9(17)11-8-7(16)6(15)5(14)4(2-12)18-8/h4-8,12,14-16H,2H2,1H3,(H2,10,11,13,17)/t4-,5-,6+,7-,8-/m1/s1

>  <InChIKey>  (82) 
UQKBNLXZEGBQAF-JAJWTYFOSA-N

>  <SMILES>  (82) 
CC(=O)NC(=O)N[C@H]1[C@@H]([C@H]([C@@H]([C@H](O1)CO)O)O)O

>  <MissingHeavyAtoms>  (82) 
0

>  <Model>  (82) 
1

>  <AltIds>  (82) 


>  <pKI>  (82) 
3.44

>  <ChemblID>  (82) 
-

>  <standardized_canonical_smiles>  (82) 
CC(=O)NC(=O)N[C@@H]1O[C@H](CO)[C@@H](O)[C@H](O)[C@H]1O

$$$$
1FU4_GL9_A_998
     RDKit          3D

 21 22  0  0  0  0  0  0  0  0999 V2000
   33.9430   22.9780   27.6990 C   0  0  0  0  0  0  0  0  0  0  0  0
   34.1000   23.1960   26.1750 C   0  0  0  0  0  0  0  0  0  0  0  0
   34.2220   24.5670   25.9390 O   0  0  0  0  0  0  0  0  0  0  0  0
   32.8370   22.5870   25.4330 C   0  0  0  0  0  0  0  0  0  0  0  0
   32.9220   22.6090   24.0320 O   0  0  0  0  0  0  0  0  0  0  0  0
   32.6860   21.1510   25.8620 C   0  0  0  0  0  0  0  0  0  0  0  0
   31.6010   20.6380   25.1900 O   0  0  0  0  0  0  0  0  0  0  0  0
   32.4490   21.1090   27.3670 C   0  0  0  0  0  0  0  0  0  0  0  0
   32.2210   19.7010   27.7750 C   0  0  0  0  0  0  0  0  0  0  0  0
   33.3070   18.9130   27.3910 O   0  0  0  0  0  0  0  0  0  0  0  0
   33.6330   21.6110   28.0160 O   0  0  0  0  0  0  0  0  0  0  0  0
   35.1820   23.3240   28.2770 N   0  0  0  0  0  0  0  0  0  0  0  0
   34.9770   24.3770   29.0700 C   0  0  0  0  0  0  0  0  0  0  0  0
   35.9470   24.9480   29.5590 O   0  0  0  0  0  0  0  0  0  0  0  0
   33.7080   24.7900   29.2610 N   0  0  0  0  0  0  0  0  0  0  0  0
   33.0400   23.9320   28.4580 C   0  0  0  0  0  0  0  0  0  0  0  0
   31.8290   23.9520   28.3510 O   0  0  0  0  0  0  0  0  0  0  0  0
   33.3200   25.7030   29.9790 N   0  0  0  0  0  0  0  0  0  0  0  0
   32.4530   25.7780   31.0020 C   0  0  0  0  0  0  0  0  0  0  0  0
   31.7400   26.7630   31.1780 O   0  0  0  0  0  0  0  0  0  0  0  0
   32.3490   24.6590   32.0080 C   0  0  0  0  0  0  0  0  0  0  0  0
  2  1  1  0
 11  1  1  0
 12  1  1  0
 16  1  1  0
  3  2  1  0
  4  2  1  0
  5  4  1  0
  6  4  1  0
  7  6  1  0
  8  6  1  0
  9  8  1  0
 11  8  1  0
 10  9  1  0
 13 12  1  0
 14 13  2  0
 15 13  1  0
 16 15  1  0
 18 15  1  0
 17 16  2  0
 19 18  1  0
 20 19  2  0
 21 19  1  0
A    1
C1
A    2
C2
A    3
O2
A    4
C3
A    5
O3
A    6
C4
A    7
O4
A    8
C5
A    9
C6
A   10
O6
A   11
O5
A   12
N2
A   13
C8
A   14
O8
A   15
N1
A   16
C7
A   17
O7
A   18
N3
A   19
C9
A   20
O9
A   21
C10
M  END
>  <Id>  (83) 
1FU4_GL9_A_998

>  <ChainId>  (83) 
A

>  <AsymId>  (83) 
B

>  <SeqNum>  (83) 
998

>  <Name>  (83) 
N-(8,9,10-TRIHYDROXY-7-HYDROXYMETHYL-2,4-DIOXO-6-OXA-1,3-DIAZA-SPIRO[4.5]DEC-3-YL-ACETAMIDE

>  <SystematicName>  (83) 
N-[(5S,6R,7S,8S,9R)-6,7,8-trihydroxy-9-(hydroxymethyl)-2,4-dioxo-10-oxa-1,3-diazaspiro[4.5]decan-3-yl]ethanamide

>  <Synonyms>  (83) 


>  <Type>  (83) 
D-SACCHARIDE

>  <Formula>  (83) 
C10 H15 N3 O8

>  <ObservedFormula>  (83) 
C10 N3 O8

>  <MolecularWeight>  (83) 
305.241

>  <ModifiedDate>  (83) 
2011-06-04

>  <Parent>  (83) 


>  <OneLetterCode>  (83) 


>  <SubcomponentList>  (83) 


>  <AmbiguousFlag>  (83) 
N

>  <InsertionCode>  (83) 


>  <InstanceId>  (83) 
1FU4_GL9_A_998

>  <ChemCompId>  (83) 
GL9

>  <PdbId>  (83) 
1FU4

>  <ResidueNumber>  (83) 
998

>  <InChI>  (83) 
InChI=1S/C10H15N3O8/c1-3(15)12-13-8(19)10(11-9(13)20)7(18)6(17)5(16)4(2-14)21-10/h4-7,14,16-18H,2H2,1H3,(H,11,20)(H,12,15)/t4-,5-,6+,7-,10+/m1/s1

>  <InChIKey>  (83) 
MAHIOGAAEAWGLR-UTAYWCBXSA-N

>  <SMILES>  (83) 
CC(=O)NN1C(=O)[C@@]2([C@@H]([C@H]([C@@H]([C@H](O2)CO)O)O)O)NC1=O

>  <MissingHeavyAtoms>  (83) 
0

>  <Model>  (83) 
1

>  <AltIds>  (83) 


>  <pKI>  (83) 
3.26

>  <ChemblID>  (83) 
-

>  <standardized_canonical_smiles>  (83) 
CC(=O)NN1C(=O)N[C@@]2(O[C@H](CO)[C@@H](O)[C@H](O)[C@H]2O)C1=O

$$$$
1C8K_CPB_A_940
     RDKit          3D

 28 31  0  0  0  0  0  0  0  0999 V2000
   43.6080   40.0770   27.8640 C   0  0  0  0  0  0  0  0  0  0  0  0
   42.6230   39.6510   28.8790 N   0  0  0  0  0  0  0  0  0  0  0  0
   41.2240   39.6490   28.3510 C   0  0  0  0  0  0  0  0  0  0  0  0
   40.1800   39.2250   29.4250 C   0  0  0  0  0  0  0  0  0  0  0  0
   40.6120   37.8860   30.0840 C   0  0  0  0  0  0  0  0  0  0  0  0
   42.0980   37.9350   30.6030 C   0  0  0  0  0  0  0  0  0  0  0  0
   43.0260   38.3180   29.4190 C   0  0  0  0  0  0  0  0  0  0  0  0
   39.5350   37.5130   31.1380 C   0  0  0  0  0  0  0  0  0  0  0  0
   38.6990   36.4150   30.8150 C   0  0  0  0  0  0  0  0  0  0  0  0
   38.8860   35.7310   29.5890 O   0  0  0  0  0  0  0  0  0  0  0  0
   38.1580   34.6600   29.1780 C   0  0  0  0  0  0  0  0  0  0  0  0
   37.1540   34.1700   29.9490 C   0  0  0  0  0  0  0  0  0  0  0  0
   36.8480   34.7840   31.2610 C   0  0  0  0  0  0  0  0  0  0  0  0
   35.9610   34.3380   31.9540 O   0  0  0  0  0  0  0  0  0  0  0  0
   37.6840   35.9780   31.7160 C   0  0  0  0  0  0  0  0  0  0  0  0
   37.4860   36.6450   32.9650 C   0  0  0  0  0  0  0  0  0  0  0  0
   36.5010   36.2430   33.8840 O   0  0  0  0  0  0  0  0  0  0  0  0
   38.3120   37.7460   33.2850 C   0  0  0  0  0  0  0  0  0  0  0  0
   39.3360   38.1830   32.3920 C   0  0  0  0  0  0  0  0  0  0  0  0
   40.1330   39.2620   32.7390 O   0  0  0  0  0  0  0  0  0  0  0  0
   38.4970   34.0180   27.8170 C   0  0  0  0  0  0  0  0  0  0  0  0
   38.9230   34.8060   26.6740 C   0  0  0  0  0  0  0  0  0  0  0  0
   39.0800   36.5310   26.7370 Cl  0  0  0  0  0  0  0  0  0  0  0  0
   39.2310   34.1870   25.4410 C   0  0  0  0  0  0  0  0  0  0  0  0
   39.1330   32.7750   25.2970 C   0  0  0  0  0  0  0  0  0  0  0  0
   38.7090   31.9770   26.4170 C   0  0  0  0  0  0  0  0  0  0  0  0
   38.4000   32.5920   27.6640 C   0  0  0  0  0  0  0  0  0  0  0  0
   42.3800   38.9180   31.6090 O   0  0  0  0  0  0  0  0  0  0  0  0
  2  1  1  0
  3  2  1  0
  7  2  1  0
  4  3  1  0
  5  4  1  0
  6  5  1  0
  8  5  1  0
  7  6  1  0
 28  6  1  0
  9  8  2  0
 19  8  1  0
 10  9  1  0
 15  9  1  0
 11 10  1  0
 12 11  2  0
 21 11  1  0
 13 12  1  0
 14 13  2  0
 15 13  1  0
 16 15  2  0
 17 16  1  0
 18 16  1  0
 19 18  2  0
 20 19  1  0
 22 21  2  0
 27 21  1  0
 23 22  1  0
 24 22  1  0
 25 24  2  0
 26 25  1  0
 27 26  2  0
A    1
C1
A    2
N1
A    3
C16
A    4
C15
A    5
C14
A    6
C13
A    7
C12
A    8
C8
A    9
C9
A   10
O1
A   11
C2
A   12
C3
A   13
C4
A   14
O4
A   15
C10
A   16
C5
A   17
O5
A   18
C6
A   19
C7
A   20
O7
A   21
C21
A   22
C22
A   23
CL1
A   24
C23
A   25
C24
A   26
C25
A   27
C26
A   28
O3
M  END
>  <Id>  (84) 
1C8K_CPB_A_940

>  <ChainId>  (84) 
A

>  <AsymId>  (84) 
C

>  <SeqNum>  (84) 
940

>  <Name>  (84) 
2-(2-CHLORO-PHENYL)-5,7-DIHYDROXY-8-(3-HYDROXY-1-METHYL-PIPERIDIN-4-YL)-4H-BENZOPYRAN-4-ONE

>  <SystematicName>  (84) 
2-(2-chlorophenyl)-5,7-dihydroxy-8-[(1S,3S,4R)-3-hydroxy-1-methyl-piperidin-4-yl]chromen-4-one

>  <Synonyms>  (84) 
FLAVOPIRIDOL

>  <Type>  (84) 
NON-POLYMER

>  <Formula>  (84) 
C21 H20 Cl N O5

>  <ObservedFormula>  (84) 
C21 Cl N O5

>  <MolecularWeight>  (84) 
401.84

>  <ModifiedDate>  (84) 
2011-06-04

>  <Parent>  (84) 


>  <OneLetterCode>  (84) 


>  <SubcomponentList>  (84) 


>  <AmbiguousFlag>  (84) 
N

>  <InsertionCode>  (84) 


>  <InstanceId>  (84) 
1C8K_CPB_A_940

>  <ChemCompId>  (84) 
CPB

>  <PdbId>  (84) 
1C8K

>  <ResidueNumber>  (84) 
940

>  <InChI>  (84) 
InChI=1S/C21H20ClNO5/c1-23-7-6-12(17(27)10-23)19-14(24)8-15(25)20-16(26)9-18(28-21(19)20)11-4-2-3-5-13(11)22/h2-5,8-9,12,17,24-25,27H,6-7,10H2,1H3/t12-,17+/m0/s1

>  <InChIKey>  (84) 
BIIVYFLTOXDAOV-YVEFUNNKSA-N

>  <SMILES>  (84) 
C[N@]1CC[C@@H]([C@@H](C1)O)c2c(cc(c3c2OC(=CC3=O)c4ccccc4Cl)O)O

>  <MissingHeavyAtoms>  (84) 
0

>  <Model>  (84) 
1

>  <AltIds>  (84) 


>  <pKI>  (84) 
5.91

>  <ChemblID>  (84) 
-

>  <standardized_canonical_smiles>  (84) 
CN1CC[C@H](c2c(O)cc(O)c3c(=O)cc(-c4ccccc4Cl)oc23)[C@H](O)C1

$$$$
3EBP_CPB_A_940
     RDKit          3D

 28 31  0  0  0  0  0  0  0  0999 V2000
   43.6640   39.9960   27.9080 C   0  0  0  0  0  0  0  0  0  0  0  0
   42.6920   39.6050   28.9430 N   0  0  0  0  0  0  0  0  0  0  0  0
   41.3320   39.6430   28.3560 C   0  0  0  0  0  0  0  0  0  0  0  0
   40.2750   39.2770   29.4140 C   0  0  0  0  0  0  0  0  0  0  0  0
   40.6090   37.9170   30.0470 C   0  0  0  0  0  0  0  0  0  0  0  0
   42.0680   37.8680   30.5630 C   0  0  0  0  0  0  0  0  0  0  0  0
   43.0340   38.2510   29.4370 C   0  0  0  0  0  0  0  0  0  0  0  0
   39.5420   37.4920   31.1020 C   0  0  0  0  0  0  0  0  0  0  0  0
   38.7280   36.3900   30.7900 C   0  0  0  0  0  0  0  0  0  0  0  0
   38.9310   35.7490   29.5910 O   0  0  0  0  0  0  0  0  0  0  0  0
   38.1810   34.6440   29.2800 C   0  0  0  0  0  0  0  0  0  0  0  0
   37.1960   34.1910   30.1560 C   0  0  0  0  0  0  0  0  0  0  0  0
   36.9570   34.8520   31.3570 C   0  0  0  0  0  0  0  0  0  0  0  0
   36.0800   34.4380   32.1180 O   0  0  0  0  0  0  0  0  0  0  0  0
   37.7360   35.9640   31.6850 C   0  0  0  0  0  0  0  0  0  0  0  0
   37.5740   36.6230   32.9090 C   0  0  0  0  0  0  0  0  0  0  0  0
   36.6350   36.2280   33.8150 O   0  0  0  0  0  0  0  0  0  0  0  0
   38.3740   37.7130   33.2180 C   0  0  0  0  0  0  0  0  0  0  0  0
   39.3480   38.1540   32.3240 C   0  0  0  0  0  0  0  0  0  0  0  0
   40.0930   39.2270   32.6980 O   0  0  0  0  0  0  0  0  0  0  0  0
   38.4210   33.9460   28.0870 C   0  0  0  0  0  0  0  0  0  0  0  0
   38.8300   34.5770   26.8980 C   0  0  0  0  0  0  0  0  0  0  0  0
   39.0450   36.2890   26.7970 Cl  0  0  0  0  0  0  0  0  0  0  0  0
   39.0690   33.8290   25.7450 C   0  0  0  0  0  0  0  0  0  0  0  0
   38.9080   32.4450   25.7710 C   0  0  0  0  0  0  0  0  0  0  0  0
   38.5120   31.8100   26.9480 C   0  0  0  0  0  0  0  0  0  0  0  0
   38.2740   32.5510   28.0980 C   0  0  0  0  0  0  0  0  0  0  0  0
   42.2540   38.7900   31.6350 O   0  0  0  0  0  0  0  0  0  0  0  0
  2  1  1  0
  3  2  1  0
  7  2  1  0
  4  3  1  0
  5  4  1  0
  6  5  1  0
  8  5  1  0
  7  6  1  0
 28  6  1  0
  9  8  2  0
 19  8  1  0
 10  9  1  0
 15  9  1  0
 11 10  1  0
 12 11  2  0
 21 11  1  0
 13 12  1  0
 14 13  2  0
 15 13  1  0
 16 15  2  0
 17 16  1  0
 18 16  1  0
 19 18  2  0
 20 19  1  0
 22 21  2  0
 27 21  1  0
 23 22  1  0
 24 22  1  0
 25 24  2  0
 26 25  1  0
 27 26  2  0
A    1
C1
A    2
N1
A    3
C16
A    4
C15
A    5
C14
A    6
C13
A    7
C12
A    8
C8
A    9
C9
A   10
O1
A   11
C2
A   12
C3
A   13
C4
A   14
O4
A   15
C10
A   16
C5
A   17
O5
A   18
C6
A   19
C7
A   20
O7
A   21
C21
A   22
C22
A   23
CL1
A   24
C23
A   25
C24
A   26
C25
A   27
C26
A   28
O3
M  END
>  <Id>  (85) 
3EBP_CPB_A_940

>  <ChainId>  (85) 
A

>  <AsymId>  (85) 
B

>  <SeqNum>  (85) 
940

>  <Name>  (85) 
2-(2-CHLORO-PHENYL)-5,7-DIHYDROXY-8-(3-HYDROXY-1-METHYL-PIPERIDIN-4-YL)-4H-BENZOPYRAN-4-ONE

>  <SystematicName>  (85) 
2-(2-chlorophenyl)-5,7-dihydroxy-8-[(1S,3S,4R)-3-hydroxy-1-methyl-piperidin-4-yl]chromen-4-one

>  <Synonyms>  (85) 
FLAVOPIRIDOL

>  <Type>  (85) 
NON-POLYMER

>  <Formula>  (85) 
C21 H20 Cl N O5

>  <ObservedFormula>  (85) 
C21 Cl N O5

>  <MolecularWeight>  (85) 
401.84

>  <ModifiedDate>  (85) 
2011-06-04

>  <Parent>  (85) 


>  <OneLetterCode>  (85) 


>  <SubcomponentList>  (85) 


>  <AmbiguousFlag>  (85) 
N

>  <InsertionCode>  (85) 


>  <InstanceId>  (85) 
3EBP_CPB_A_940

>  <ChemCompId>  (85) 
CPB

>  <PdbId>  (85) 
3EBP

>  <ResidueNumber>  (85) 
940

>  <InChI>  (85) 
InChI=1S/C21H20ClNO5/c1-23-7-6-12(17(27)10-23)19-14(24)8-15(25)20-16(26)9-18(28-21(19)20)11-4-2-3-5-13(11)22/h2-5,8-9,12,17,24-25,27H,6-7,10H2,1H3/t12-,17+/m0/s1

>  <InChIKey>  (85) 
BIIVYFLTOXDAOV-YVEFUNNKSA-N

>  <SMILES>  (85) 
C[N@]1CC[C@@H]([C@@H](C1)O)c2c(cc(c3c2OC(=CC3=O)c4ccccc4Cl)O)O

>  <MissingHeavyAtoms>  (85) 
0

>  <Model>  (85) 
1

>  <AltIds>  (85) 


>  <pKI>  (85) 
5.91

>  <ChemblID>  (85) 
-

>  <standardized_canonical_smiles>  (85) 
CN1CC[C@H](c2c(O)cc(O)c3c(=O)cc(-c4ccccc4Cl)oc23)[C@H](O)C1

$$$$
1E1Y_CPB_A_940
     RDKit          3D

 28 31  0  0  0  0  0  0  0  0999 V2000
   43.5000   39.9190   27.6330 C   0  0  0  0  0  0  0  0  0  0  0  0
   42.4820   39.5270   28.6180 N   0  0  0  0  0  0  0  0  0  0  0  0
   41.0990   39.6420   28.1280 C   0  0  0  0  0  0  0  0  0  0  0  0
   39.9930   39.2520   29.1770 C   0  0  0  0  0  0  0  0  0  0  0  0
   40.3490   37.8830   29.8290 C   0  0  0  0  0  0  0  0  0  0  0  0
   41.8300   37.8440   30.3560 C   0  0  0  0  0  0  0  0  0  0  0  0
   42.7910   38.1840   29.1840 C   0  0  0  0  0  0  0  0  0  0  0  0
   39.1980   37.5070   30.8610 C   0  0  0  0  0  0  0  0  0  0  0  0
   38.3190   36.4010   30.5370 C   0  0  0  0  0  0  0  0  0  0  0  0
   38.4850   35.7040   29.3290 O   0  0  0  0  0  0  0  0  0  0  0  0
   37.7050   34.6330   28.9300 C   0  0  0  0  0  0  0  0  0  0  0  0
   36.6890   34.1770   29.7070 C   0  0  0  0  0  0  0  0  0  0  0  0
   36.3940   34.8160   31.0020 C   0  0  0  0  0  0  0  0  0  0  0  0
   35.4830   34.3940   31.6860 O   0  0  0  0  0  0  0  0  0  0  0  0
   37.2780   36.0050   31.4560 C   0  0  0  0  0  0  0  0  0  0  0  0
   37.0970   36.6930   32.7000 C   0  0  0  0  0  0  0  0  0  0  0  0
   36.0770   36.3310   33.5940 O   0  0  0  0  0  0  0  0  0  0  0  0
   37.9470   37.7820   33.0200 C   0  0  0  0  0  0  0  0  0  0  0  0
   38.9830   38.1950   32.1250 C   0  0  0  0  0  0  0  0  0  0  0  0
   39.7960   39.2810   32.5160 O   0  0  0  0  0  0  0  0  0  0  0  0
   37.9930   33.9370   27.5750 C   0  0  0  0  0  0  0  0  0  0  0  0
   38.3630   34.6620   26.3900 C   0  0  0  0  0  0  0  0  0  0  0  0
   38.5130   36.3980   26.3540 Cl  0  0  0  0  0  0  0  0  0  0  0  0
   38.6270   33.9870   25.1780 C   0  0  0  0  0  0  0  0  0  0  0  0
   38.5250   32.5670   25.0970 C   0  0  0  0  0  0  0  0  0  0  0  0
   38.1580   31.8200   26.2640 C   0  0  0  0  0  0  0  0  0  0  0  0
   37.8930   32.4990   27.4850 C   0  0  0  0  0  0  0  0  0  0  0  0
   42.1540   38.8030   31.3640 O   0  0  0  0  0  0  0  0  0  0  0  0
  2  1  1  0
  3  2  1  0
  7  2  1  0
  4  3  1  0
  5  4  1  0
  6  5  1  0
  8  5  1  0
  7  6  1  0
 28  6  1  0
  9  8  2  0
 19  8  1  0
 10  9  1  0
 15  9  1  0
 11 10  1  0
 12 11  2  0
 21 11  1  0
 13 12  1  0
 14 13  2  0
 15 13  1  0
 16 15  2  0
 17 16  1  0
 18 16  1  0
 19 18  2  0
 20 19  1  0
 22 21  2  0
 27 21  1  0
 23 22  1  0
 24 22  1  0
 25 24  2  0
 26 25  1  0
 27 26  2  0
A    1
C1
A    2
N1
A    3
C16
A    4
C15
A    5
C14
A    6
C13
A    7
C12
A    8
C8
A    9
C9
A   10
O1
A   11
C2
A   12
C3
A   13
C4
A   14
O4
A   15
C10
A   16
C5
A   17
O5
A   18
C6
A   19
C7
A   20
O7
A   21
C21
A   22
C22
A   23
CL1
A   24
C23
A   25
C24
A   26
C25
A   27
C26
A   28
O3
M  END
>  <Id>  (86) 
1E1Y_CPB_A_940

>  <ChainId>  (86) 
A

>  <AsymId>  (86) 
B

>  <SeqNum>  (86) 
940

>  <Name>  (86) 
2-(2-CHLORO-PHENYL)-5,7-DIHYDROXY-8-(3-HYDROXY-1-METHYL-PIPERIDIN-4-YL)-4H-BENZOPYRAN-4-ONE

>  <SystematicName>  (86) 
2-(2-chlorophenyl)-5,7-dihydroxy-8-[(1S,3S,4R)-3-hydroxy-1-methyl-piperidin-4-yl]chromen-4-one

>  <Synonyms>  (86) 
FLAVOPIRIDOL

>  <Type>  (86) 
NON-POLYMER

>  <Formula>  (86) 
C21 H20 Cl N O5

>  <ObservedFormula>  (86) 
C21 Cl N O5

>  <MolecularWeight>  (86) 
401.84

>  <ModifiedDate>  (86) 
2011-06-04

>  <Parent>  (86) 


>  <OneLetterCode>  (86) 


>  <SubcomponentList>  (86) 


>  <AmbiguousFlag>  (86) 
N

>  <InsertionCode>  (86) 


>  <InstanceId>  (86) 
1E1Y_CPB_A_940

>  <ChemCompId>  (86) 
CPB

>  <PdbId>  (86) 
1E1Y

>  <ResidueNumber>  (86) 
940

>  <InChI>  (86) 
InChI=1S/C21H20ClNO5/c1-23-7-6-12(17(27)10-23)19-14(24)8-15(25)20-16(26)9-18(28-21(19)20)11-4-2-3-5-13(11)22/h2-5,8-9,12,17,24-25,27H,6-7,10H2,1H3/t12-,17+/m0/s1

>  <InChIKey>  (86) 
BIIVYFLTOXDAOV-YVEFUNNKSA-N

>  <SMILES>  (86) 
C[N@]1CC[C@@H]([C@@H](C1)O)c2c(cc(c3c2OC(=CC3=O)c4ccccc4Cl)O)O

>  <MissingHeavyAtoms>  (86) 
0

>  <Model>  (86) 
1

>  <AltIds>  (86) 


>  <pKI>  (86) 
5.91

>  <ChemblID>  (86) 
-

>  <standardized_canonical_smiles>  (86) 
CN1CC[C@H](c2c(O)cc(O)c3c(=O)cc(-c4ccccc4Cl)oc23)[C@H](O)C1

$$$$
1C8L_CFF_A_940
     RDKit          3D

 14 15  0  0  0  0  0  0  0  0999 V2000
   38.4310   36.4870   29.6380 N   0  0  0  0  0  0  0  0  0  0  0  0
   37.7800   35.3150   28.8680 C   0  0  0  0  0  0  0  0  0  0  0  0
   39.3480   37.3680   28.8290 C   0  0  0  0  0  0  0  0  0  0  0  0
   38.2230   36.7450   31.0120 C   0  0  0  0  0  0  0  0  0  0  0  0
   36.9830   34.5730   29.6570 N   0  0  0  0  0  0  0  0  0  0  0  0
   38.0540   35.1990   27.7010 O   0  0  0  0  0  0  0  0  0  0  0  0
   36.2820   33.4100   29.0560 C   0  0  0  0  0  0  0  0  0  0  0  0
   36.7380   34.8030   31.0380 C   0  0  0  0  0  0  0  0  0  0  0  0
   37.3230   35.8550   31.7070 C   0  0  0  0  0  0  0  0  0  0  0  0
   35.9620   34.1000   31.8300 N   0  0  0  0  0  0  0  0  0  0  0  0
   38.8080   37.7500   31.5740 O   0  0  0  0  0  0  0  0  0  0  0  0
   36.8760   35.7580   33.0260 N   0  0  0  0  0  0  0  0  0  0  0  0
   36.0730   34.7060   33.0220 C   0  0  0  0  0  0  0  0  0  0  0  0
   37.2230   36.6340   34.1610 C   0  0  0  0  0  0  0  0  0  0  0  0
  2  1  1  0
  3  1  1  0
  4  1  1  0
  5  2  1  0
  6  2  2  0
  9  4  1  0
 11  4  2  0
  7  5  1  0
  8  5  1  0
  9  8  2  0
 10  8  1  0
 12  9  1  0
 13 10  2  0
 13 12  1  0
 14 12  1  0
A    1
N1
A    2
C2
A    3
C10
A    4
C6
A    5
N3
A    6
O11
A    7
C12
A    8
C4
A    9
C5
A   10
N9
A   11
O13
A   12
N7
A   13
C8
A   14
C14
M  END
>  <Id>  (87) 
1C8L_CFF_A_940

>  <ChainId>  (87) 
A

>  <AsymId>  (87) 
D

>  <SeqNum>  (87) 
940

>  <Name>  (87) 
CAFFEINE

>  <SystematicName>  (87) 
1,3,7-trimethylpurine-2,6-dione

>  <Synonyms>  (87) 
3,7-DIHYDRO-1,3,7-TRIMETHYL-1H-PURINE-2,6-DIONE

>  <Type>  (87) 
NON-POLYMER

>  <Formula>  (87) 
C8 H10 N4 O2

>  <ObservedFormula>  (87) 
C8 N4 O2

>  <MolecularWeight>  (87) 
194.191

>  <ModifiedDate>  (87) 
2011-06-04

>  <Parent>  (87) 


>  <OneLetterCode>  (87) 


>  <SubcomponentList>  (87) 


>  <AmbiguousFlag>  (87) 
N

>  <InsertionCode>  (87) 


>  <InstanceId>  (87) 
1C8L_CFF_A_940

>  <ChemCompId>  (87) 
CFF

>  <PdbId>  (87) 
1C8L

>  <ResidueNumber>  (87) 
940

>  <InChI>  (87) 
InChI=1S/C8H10N4O2/c1-10-4-9-6-5(10)7(13)12(3)8(14)11(6)2/h4H,1-3H3

>  <InChIKey>  (87) 
RYYVLZVUVIJVGH-UHFFFAOYSA-N

>  <SMILES>  (87) 
Cn1cnc2c1C(=O)N(C(=O)N2C)C

>  <MissingHeavyAtoms>  (87) 
0

>  <Model>  (87) 
1

>  <AltIds>  (87) 


>  <pKI>  (87) 
3.91

>  <ChemblID>  (87) 
-

>  <standardized_canonical_smiles>  (87) 
Cn1c(=O)c2c(ncn2C)n(C)c1=O

$$$$
1GFZ_CFF_A_940
     RDKit          3D

 14 15  0  0  0  0  0  0  0  0999 V2000
   38.9840   37.0340   29.9650 N   0  0  0  0  0  0  0  0  0  0  0  0
   38.4900   35.8800   29.0750 C   0  0  0  0  0  0  0  0  0  0  0  0
   39.9540   37.9900   29.3080 C   0  0  0  0  0  0  0  0  0  0  0  0
   38.6080   37.2070   31.3250 C   0  0  0  0  0  0  0  0  0  0  0  0
   37.6350   35.0650   29.7120 N   0  0  0  0  0  0  0  0  0  0  0  0
   38.8880   35.8200   27.9430 O   0  0  0  0  0  0  0  0  0  0  0  0
   37.0800   33.9050   28.9680 C   0  0  0  0  0  0  0  0  0  0  0  0
   37.2180   35.2060   31.0620 C   0  0  0  0  0  0  0  0  0  0  0  0
   37.6480   36.2440   31.8440 C   0  0  0  0  0  0  0  0  0  0  0  0
   36.3750   34.4240   31.7000 N   0  0  0  0  0  0  0  0  0  0  0  0
   39.0560   38.2000   32.0060 O   0  0  0  0  0  0  0  0  0  0  0  0
   37.0550   36.0650   33.0970 N   0  0  0  0  0  0  0  0  0  0  0  0
   36.2960   34.9680   32.9260 C   0  0  0  0  0  0  0  0  0  0  0  0
   37.2010   36.9290   34.3060 C   0  0  0  0  0  0  0  0  0  0  0  0
  2  1  1  0
  3  1  1  0
  4  1  1  0
  5  2  1  0
  6  2  2  0
  9  4  1  0
 11  4  2  0
  7  5  1  0
  8  5  1  0
  9  8  2  0
 10  8  1  0
 12  9  1  0
 13 10  2  0
 13 12  1  0
 14 12  1  0
A    1
N1
A    2
C2
A    3
C10
A    4
C6
A    5
N3
A    6
O11
A    7
C12
A    8
C4
A    9
C5
A   10
N9
A   11
O13
A   12
N7
A   13
C8
A   14
C14
M  END
>  <Id>  (88) 
1GFZ_CFF_A_940

>  <ChainId>  (88) 
A

>  <AsymId>  (88) 
D

>  <SeqNum>  (88) 
940

>  <Name>  (88) 
CAFFEINE

>  <SystematicName>  (88) 
1,3,7-trimethylpurine-2,6-dione

>  <Synonyms>  (88) 
3,7-DIHYDRO-1,3,7-TRIMETHYL-1H-PURINE-2,6-DIONE

>  <Type>  (88) 
NON-POLYMER

>  <Formula>  (88) 
C8 H10 N4 O2

>  <ObservedFormula>  (88) 
C8 N4 O2

>  <MolecularWeight>  (88) 
194.191

>  <ModifiedDate>  (88) 
2011-06-04

>  <Parent>  (88) 


>  <OneLetterCode>  (88) 


>  <SubcomponentList>  (88) 


>  <AmbiguousFlag>  (88) 
N

>  <InsertionCode>  (88) 


>  <InstanceId>  (88) 
1GFZ_CFF_A_940

>  <ChemCompId>  (88) 
CFF

>  <PdbId>  (88) 
1GFZ

>  <ResidueNumber>  (88) 
940

>  <InChI>  (88) 
InChI=1S/C8H10N4O2/c1-10-4-9-6-5(10)7(13)12(3)8(14)11(6)2/h4H,1-3H3

>  <InChIKey>  (88) 
RYYVLZVUVIJVGH-UHFFFAOYSA-N

>  <SMILES>  (88) 
Cn1cnc2c1C(=O)N(C(=O)N2C)C

>  <MissingHeavyAtoms>  (88) 
0

>  <Model>  (88) 
1

>  <AltIds>  (88) 


>  <pKI>  (88) 
3.91

>  <ChemblID>  (88) 
-

>  <standardized_canonical_smiles>  (88) 
Cn1c(=O)c2c(ncn2C)n(C)c1=O

$$$$
6GPB_GLC_A_907
     RDKit          3D

 11 12  0  0  0  0  0  0  0  0999 V2000
   67.3120   16.9500   42.4110 C   0  0  0  0  0  0  0  0  0  0  0  0
   68.8370   17.1100   42.4770 C   0  0  0  0  0  0  0  0  0  0  0  0
   69.5050   16.2730   41.3800 C   0  0  0  0  0  0  0  0  0  0  0  0
   69.1060   14.8250   41.6010 C   0  0  0  0  0  0  0  0  0  0  0  0
   67.5770   14.7290   41.5320 C   0  0  0  0  0  0  0  0  0  0  0  0
   67.0870   13.3140   41.7720 C   0  0  0  0  0  0  0  0  0  0  0  0
   69.1500   18.4910   42.2960 O   0  0  0  0  0  0  0  0  0  0  0  0
   70.9160   16.4620   41.5070 O   0  0  0  0  0  0  0  0  0  0  0  0
   69.6980   13.9940   40.6000 O   0  0  0  0  0  0  0  0  0  0  0  0
   66.9820   15.5750   42.5350 O   0  0  0  0  0  0  0  0  0  0  0  0
   67.4450   12.8100   43.0610 O   0  0  0  0  0  0  0  0  0  0  0  0
  2  1  1  0
 10  1  1  0
  1  9  1  0
  3  2  1  0
  7  2  1  0
  4  3  1  0
  8  3  1  0
  5  4  1  0
  9  4  1  0
  6  5  1  0
 10  5  1  0
 11  6  1  0
A    1
C1
A    2
C2
A    3
C3
A    4
C4
A    5
C5
A    6
C6
A    7
O2
A    8
O3
A    9
O4
A   10
O5
A   11
O6
M  END
>  <Id>  (89) 
6GPB_GLC_A_907

>  <ChainId>  (89) 
A

>  <AsymId>  (89) 
G

>  <SeqNum>  (89) 
907

>  <Name>  (89) 
ALPHA-D-GLUCOSE

>  <SystematicName>  (89) 
(2S,3R,4S,5S,6R)-6-(hydroxymethyl)oxane-2,3,4,5-tetrol

>  <Synonyms>  (89) 


>  <Type>  (89) 
SACCHARIDE

>  <Formula>  (89) 
C6 H12 O6

>  <ObservedFormula>  (89) 
C6 O5

>  <MolecularWeight>  (89) 
180.156

>  <ModifiedDate>  (89) 
2011-06-04

>  <Parent>  (89) 


>  <OneLetterCode>  (89) 


>  <SubcomponentList>  (89) 


>  <AmbiguousFlag>  (89) 
N

>  <InsertionCode>  (89) 


>  <InstanceId>  (89) 
6GPB_GLC_A_907

>  <ChemCompId>  (89) 
GLC

>  <PdbId>  (89) 
6GPB

>  <ResidueNumber>  (89) 
907

>  <InChI>  (89) 
InChI=1S/C6H12O6/c7-1-2-3(8)4(9)5(10)6(11)12-2/h2-11H,1H2/t2-,3-,4+,5-,6+/m1/s1

>  <InChIKey>  (89) 
WQZGKKKJIJFFOK-DVKNGEFBSA-N

>  <SMILES>  (89) 
C([C@@H]1[C@H]([C@@H]([C@H]([C@H](O1)O)O)O)O)O

>  <MissingHeavyAtoms>  (89) 
1

>  <Model>  (89) 
1

>  <AltIds>  (89) 


>  <pKI>  (89) 
3.67

>  <ChemblID>  (89) 
-

>  <standardized_canonical_smiles>  (89) 
COC(=O)C(=O)N[C@@H]1O[C@H](CO)[C@@H](O)[C@H](O)[C@H]1O

$$$$
2F3Q_6GP_A_998
     RDKit          3D

 18 18  0  0  0  0  0  0  0  0999 V2000
   33.6650   22.8290   27.7630 C   0  0  0  0  0  0  0  0  0  0  0  0
   33.3340   18.5560   27.1790 O   0  0  0  0  0  0  0  0  0  0  0  0
   34.6490   24.0120   29.6890 C   0  0  0  0  0  0  0  0  0  0  0  0
   32.3750   20.8210   27.3530 C   0  0  0  0  0  0  0  0  0  0  0  0
   31.4810   20.4000   25.0930 O   0  0  0  0  0  0  0  0  0  0  0  0
   33.5450   24.2050   30.1660 O   0  0  0  0  0  0  0  0  0  0  0  0
   35.7870   25.4510   31.1060 O   0  0  0  0  0  0  0  0  0  0  0  0
   32.9710   22.6110   24.0350 O   0  0  0  0  0  0  0  0  0  0  0  0
   34.0800   24.4410   25.9380 O   0  0  0  0  0  0  0  0  0  0  0  0
   38.0470   23.8360   31.2280 C   0  0  0  0  0  0  0  0  0  0  0  0
   34.8020   23.3480   28.5240 N   0  0  0  0  0  0  0  0  0  0  0  0
   35.8910   24.4960   30.3390 C   0  0  0  0  0  0  0  0  0  0  0  0
   32.2610   19.3330   27.7570 C   0  0  0  0  0  0  0  0  0  0  0  0
   37.1220   23.9670   30.1230 O   0  0  0  0  0  0  0  0  0  0  0  0
   33.5000   21.4130   28.0670 O   0  0  0  0  0  0  0  0  0  0  0  0
   33.9400   23.0380   26.2530 C   0  0  0  0  0  0  0  0  0  0  0  0
   32.5910   20.9640   25.8060 C   0  0  0  0  0  0  0  0  0  0  0  0
   32.7510   22.4600   25.4470 C   0  0  0  0  0  0  0  0  0  0  0  0
 16 18  1  0
 18 17  1  0
  1 15  1  0
 13  2  1  0
  3 12  1  0
 16  9  1  0
 18  8  1  0
  3  6  2  0
  1 16  1  0
 17  5  1  0
  4 13  1  0
 11  3  1  0
 12  7  2  0
 10 14  1  0
  1 11  1  0
 12 14  1  0
 17  4  1  0
  4 15  1  0
A    1
C1
A    2
O6
A    3
C7
A    4
C5
A    5
O4
A    6
O7
A    7
O8
A    8
O3
A    9
O2
A   10
C9
A   11
N1
A   12
C8
A   13
C6
A   14
O9
A   15
O5
A   16
C2
A   17
C4
A   18
C3
M  END
>  <InstanceId>  (90) 
2F3Q_6GP

>  <ChemCompId>  (90) 
6GP

>  <PdbId>  (90) 
2F3Q

>  <ChainId>  (90) 
A

>  <ResidueNumber>  (90) 
998

>  <InsertionCode>  (90) 
null

>  <Model>  (90) 
1

>  <AltIds>  (90) 


>  <MissingHeavyAtoms>  (90) 
0

>  <ObservedFormula>  (90) 
C9 N O8

>  <AsymId>  (90) 
C

>  <SeqNum>  (90) 
998

>  <Name>  (90) 
METHYL-N-(BETA-D-GLUCOPYRANOSYL)OXAMATE

>  <SystematicName>  (90) 
methyl 2-oxo-2-[[(2R,3R,4S,5S,6R)-3,4,5-trihydroxy-6-(hydroxymethyl)oxan-2-yl]amino]ethanoate

>  <Synonyms>  (90) 


>  <Type>  (90) 
NON-POLYMER

>  <Formula>  (90) 
C9 H15 N O8

>  <MolecularWeight>  (90) 
265.217

>  <ModifiedDate>  (90) 
2011-06-04

>  <Parent>  (90) 


>  <OneLetterCode>  (90) 


>  <SubcomponentList>  (90) 


>  <AmbiguousFlag>  (90) 
N

>  <InChI>  (90) 
InChI=1S/C9H15NO8/c1-17-9(16)7(15)10-8-6(14)5(13)4(12)3(2-11)18-8/h3-6,8,11-14H,2H2,1H3,(H,10,15)/t3-,4-,5+,6-,8-/m1/s1

>  <InChIKey>  (90) 
OHCAXSUQOPLGLU-QOHYDMMQSA-N

>  <SMILES>  (90) 
COC(=O)C(=O)N[C@H]1[C@@H]([C@H]([C@@H]([C@H](O1)CO)O)O)O

>  <pKI>  (90) 
3.67

>  <ChemblID>  (90) 
-

>  <standardized_canonical_smiles>  (90) 
COC(=O)C(=O)N[C@@H]1O[C@H](CO)[C@@H](O)[C@H](O)[C@H]1O

$$$$
6GPB_PLP_A_999
     RDKit          3D

 15 15  0  0  0  0  0  0  0  0999 V2000
   24.7640   25.3700   30.2880 N   0  0  0  0  0  0  0  0  0  0  0  0
   23.5890   24.6890   30.4970 C   0  0  0  0  0  0  0  0  0  0  0  0
   22.6270   25.2710   31.4770 C   0  0  0  0  0  0  0  0  0  0  0  0
   23.2580   23.5940   29.7280 C   0  0  0  0  0  0  0  0  0  0  0  0
   22.2180   22.7790   30.1320 O   0  0  0  0  0  0  0  0  0  0  0  0
   24.0820   23.2230   28.6750 C   0  0  0  0  0  0  0  0  0  0  0  0
   23.7210   22.0950   27.7440 C   0  0  0  0  0  0  0  0  0  0  0  0
   25.2320   23.9370   28.4400 C   0  0  0  0  0  0  0  0  0  0  0  0
   25.5640   24.9810   29.2560 C   0  0  0  0  0  0  0  0  0  0  0  0
   26.1190   23.5790   27.2730 C   0  0  0  0  0  0  0  0  0  0  0  0
   26.0540   24.5430   26.2160 O   0  0  0  0  0  0  0  0  0  0  0  0
   27.3090   24.8360   25.2850 P   0  0  0  0  0  0  0  0  0  0  0  0
   27.8140   23.5580   24.7870 O   0  0  0  0  0  0  0  0  0  0  0  0
   26.8990   25.8550   24.2880 O   0  0  0  0  0  0  0  0  0  0  0  0
   28.4140   25.5200   26.1700 O   0  0  0  0  0  0  0  0  0  0  0  0
  2  1  2  0
  9  1  1  0
  3  2  1  0
  4  2  1  0
  5  4  1  0
  6  4  2  0
  7  6  1  0
  8  6  1  0
  9  8  2  0
 10  8  1  0
 11 10  1  0
 12 11  1  0
 13 12  2  0
 14 12  1  0
 15 12  1  0
A    1
N1
A    2
C2
A    3
C2A
A    4
C3
A    5
O3
A    6
C4
A    7
C4A
A    8
C5
A    9
C6
A   10
C5A
A   11
O4P
A   12
P
A   13
O1P
A   14
O2P
A   15
O3P
M  END
>  <Id>  (91) 
6GPB_PLP_A_999

>  <ChainId>  (91) 
A

>  <AsymId>  (91) 
H

>  <SeqNum>  (91) 
999

>  <Name>  (91) 
PYRIDOXAL-5'-PHOSPHATE

>  <SystematicName>  (91) 
(5-hydroxy-4-methanoyl-6-methyl-pyridin-3-yl)methyl dihydrogen phosphate

>  <Synonyms>  (91) 
VITAMIN B6 Phosphate

>  <Type>  (91) 
NON-POLYMER

>  <Formula>  (91) 
C8 H10 N O6 P

>  <ObservedFormula>  (91) 
P C8 N O5

>  <MolecularWeight>  (91) 
247.142

>  <ModifiedDate>  (91) 
2011-06-04

>  <Parent>  (91) 


>  <OneLetterCode>  (91) 


>  <SubcomponentList>  (91) 


>  <AmbiguousFlag>  (91) 
N

>  <InsertionCode>  (91) 


>  <InstanceId>  (91) 
6GPB_PLP_A_999

>  <ChemCompId>  (91) 
PLP

>  <PdbId>  (91) 
6GPB

>  <ResidueNumber>  (91) 
999

>  <InChI>  (91) 
InChI=1S/C8H10NO6P/c1-5-8(11)7(3-10)6(2-9-5)4-15-16(12,13)14/h2-3,11H,4H2,1H3,(H2,12,13,14)

>  <InChIKey>  (91) 
NGVDGCNFYWLIFO-UHFFFAOYSA-N

>  <MissingHeavyAtoms>  (91) 
1

>  <Model>  (91) 
1

>  <AltIds>  (91) 


>  <pKI>  (91) 
3.67

>  <ChemblID>  (91) 
-

>  <standardized_canonical_smiles>  (91) 
COC(=O)C(=O)N[C@@H]1O[C@H](CO)[C@@H](O)[C@H](O)[C@H]1O

$$$$
6GPB_AMP_A_997
     RDKit          3D

 23 25  0  0  0  0  0  0  0  0999 V2000
   31.2080    1.9460   51.1980 P   0  0  0  0  0  0  0  0  0  0  0  0
   32.3350    0.9940   51.1410 O   0  0  0  0  0  0  0  0  0  0  0  0
   30.7810    2.6470   49.9660 O   0  0  0  0  0  0  0  0  0  0  0  0
   31.5170    3.0390   52.3200 O   0  0  0  0  0  0  0  0  0  0  0  0
   29.9520    1.1520   51.8080 O   0  0  0  0  0  0  0  0  0  0  0  0
   29.0890    0.3120   51.0450 C   0  0  0  0  0  0  0  0  0  0  0  0
   28.3570   -0.6640   51.9610 C   0  0  0  0  0  0  0  0  0  0  0  0
   28.8790   -1.9940   51.9220 O   0  0  0  0  0  0  0  0  0  0  0  0
   27.8530   -0.3000   53.3660 C   0  0  0  0  0  0  0  0  0  0  0  0
   26.8610    0.7060   53.5800 O   0  0  0  0  0  0  0  0  0  0  0  0
   27.5200   -1.7190   53.8650 C   0  0  0  0  0  0  0  0  0  0  0  0
   26.2390   -2.2290   53.5330 O   0  0  0  0  0  0  0  0  0  0  0  0
   28.7050   -2.4680   53.2550 C   0  0  0  0  0  0  0  0  0  0  0  0
   29.9390   -2.6900   54.0640 N   0  0  0  0  0  0  0  0  0  0  0  0
   31.0070   -1.8190   54.3250 C   0  0  0  0  0  0  0  0  0  0  0  0
   31.7340   -2.4080   55.3580 N   0  0  0  0  0  0  0  0  0  0  0  0
   31.1260   -3.5610   55.6900 C   0  0  0  0  0  0  0  0  0  0  0  0
   31.5370   -4.4230   56.6670 C   0  0  0  0  0  0  0  0  0  0  0  0
   32.5120   -3.9990   57.5350 N   0  0  0  0  0  0  0  0  0  0  0  0
   30.7980   -5.5650   56.8420 N   0  0  0  0  0  0  0  0  0  0  0  0
   29.6800   -5.7670   56.0520 C   0  0  0  0  0  0  0  0  0  0  0  0
   29.2880   -4.8630   55.0850 N   0  0  0  0  0  0  0  0  0  0  0  0
   30.0460   -3.7510   54.9170 C   0  0  0  0  0  0  0  0  0  0  0  0
  2  1  2  0
  3  1  1  0
  4  1  1  0
  5  1  1  0
  6  5  1  0
  7  6  1  0
  8  7  1  0
  9  7  1  0
 13  8  1  0
 10  9  1  0
 11  9  1  0
 12 11  1  0
 13 11  1  0
 14 13  1  0
 15 14  1  0
 23 14  1  0
 16 15  2  0
 17 16  1  0
 18 17  1  0
 23 17  2  0
 19 18  1  0
 20 18  2  0
 21 20  1  0
 22 21  2  0
 23 22  1  0
A    1
P
A    2
O1P
A    3
O2P
A    4
O3P
A    5
O5'
A    6
C5'
A    7
C4'
A    8
O4'
A    9
C3'
A   10
O3'
A   11
C2'
A   12
O2'
A   13
C1'
A   14
N9
A   15
C8
A   16
N7
A   17
C5
A   18
C6
A   19
N6
A   20
N1
A   21
C2
A   22
N3
A   23
C4
M  END
>  <Id>  (92) 
6GPB_AMP_A_997

>  <ChainId>  (92) 
A

>  <AsymId>  (92) 
J

>  <SeqNum>  (92) 
997

>  <Name>  (92) 
ADENOSINE MONOPHOSPHATE

>  <SystematicName>  (92) 
[(2R,3S,4R,5R)-5-(6-aminopurin-9-yl)-3,4-bis(oxidanyl)oxolan-2-yl]methyl dihydrogen phosphate

>  <Synonyms>  (92) 


>  <Type>  (92) 
NON-POLYMER

>  <Formula>  (92) 
C10 H14 N5 O7 P

>  <ObservedFormula>  (92) 
P C10 N5 O7

>  <MolecularWeight>  (92) 
347.221

>  <ModifiedDate>  (92) 
2011-12-08

>  <Parent>  (92) 


>  <OneLetterCode>  (92) 


>  <SubcomponentList>  (92) 


>  <AmbiguousFlag>  (92) 
N

>  <InsertionCode>  (92) 


>  <InstanceId>  (92) 
6GPB_AMP_A_997

>  <ChemCompId>  (92) 
AMP

>  <PdbId>  (92) 
6GPB

>  <ResidueNumber>  (92) 
997

>  <InChI>  (92) 
InChI=1S/C10H14N5O7P/c11-8-5-9(13-2-12-8)15(3-14-5)10-7(17)6(16)4(22-10)1-21-23(18,19)20/h2-4,6-7,10,16-17H,1H2,(H2,11,12,13)(H2,18,19,20)/t4-,6-,7-,10-/m1/s1

>  <InChIKey>  (92) 
UDMBCSSLTHHNCD-KQYNXXCUSA-N

>  <SMILES>  (92) 
c1nc(c2c(n1)n(cn2)[C@H]3[C@@H]([C@@H]([C@H](O3)COP(=O)(O)O)O)O)N

>  <MissingHeavyAtoms>  (92) 
0

>  <Model>  (92) 
1

>  <AltIds>  (92) 


>  <pKI>  (92) 
3.67

>  <ChemblID>  (92) 
-

>  <standardized_canonical_smiles>  (92) 
COC(=O)C(=O)N[C@@H]1O[C@H](CO)[C@@H](O)[C@H](O)[C@H]1O

$$$$
6GPB_H2P_A_998
     RDKit          3D

 17 17  0  0  0  0  0  0  0  0999 V2000
   33.4830   23.0080   27.8320 C   0  0  0  0  0  0  0  0  0  0  0  0
   33.6870   23.1710   26.3310 C   0  0  0  0  0  0  0  0  0  0  0  0
   32.4770   22.6150   25.5910 C   0  0  0  0  0  0  0  0  0  0  0  0
   32.3010   21.1400   25.9210 C   0  0  0  0  0  0  0  0  0  0  0  0
   32.1120   20.9690   27.4240 C   0  0  0  0  0  0  0  0  0  0  0  0
   32.0400   19.4930   27.7900 C   0  0  0  0  0  0  0  0  0  0  0  0
   34.7000   23.4750   28.6160 C   0  0  0  0  0  0  0  0  0  0  0  0
   32.3220   23.8330   28.1980 O   0  0  0  0  0  0  0  0  0  0  0  0
   33.8550   24.5900   26.0030 O   0  0  0  0  0  0  0  0  0  0  0  0
   32.6690   22.7800   24.1440 O   0  0  0  0  0  0  0  0  0  0  0  0
   31.1290   20.6140   25.2110 O   0  0  0  0  0  0  0  0  0  0  0  0
   33.2430   21.5870   28.1340 O   0  0  0  0  0  0  0  0  0  0  0  0
   33.2810   18.8050   27.4050 O   0  0  0  0  0  0  0  0  0  0  0  0
   31.5120   25.0300   27.5030 P   0  0  0  0  0  0  0  0  0  0  0  0
   30.3860   24.4830   26.5240 O   0  0  0  0  0  0  0  0  0  0  0  0
   30.8240   25.8660   28.6770 O   0  0  0  0  0  0  0  0  0  0  0  0
   32.5150   25.9480   26.6810 O   0  0  0  0  0  0  0  0  0  0  0  0
  2  1  1  0
  7  1  1  0
  8  1  1  0
 12  1  1  0
  3  2  1  0
  9  2  1  0
  4  3  1  0
 10  3  1  0
  5  4  1  0
 11  4  1  0
  6  5  1  0
 12  5  1  0
 13  6  1  0
 14  8  1  0
 15 14  2  0
 16 14  1  0
 17 14  1  0
A    1
C1
A    2
C2
A    3
C3
A    4
C4
A    5
C5
A    6
C6
A    7
C7
A    8
O1
A    9
O2
A   10
O3
A   11
O4
A   12
O5
A   13
O6
A   14
P
A   15
OP1
A   16
OP2
A   17
OP3
M  END
>  <Id>  (93) 
6GPB_H2P_A_998

>  <ChainId>  (93) 
A

>  <AsymId>  (93) 
B

>  <SeqNum>  (93) 
998

>  <Name>  (93) 
HEPTULOSE-2-PHOSPHATE

>  <SystematicName>  (93) 
[(2R,3R,4S,5S,6R)-3,4,5-trihydroxy-6-(hydroxymethyl)-2-methyl-oxan-2-yl] dihydrogen phosphate

>  <Synonyms>  (93) 


>  <Type>  (93) 
SACCHARIDE

>  <Formula>  (93) 
C7 H15 O9 P

>  <ObservedFormula>  (93) 
P C7 O9

>  <MolecularWeight>  (93) 
274.162

>  <ModifiedDate>  (93) 
2011-06-04

>  <Parent>  (93) 


>  <OneLetterCode>  (93) 


>  <SubcomponentList>  (93) 


>  <AmbiguousFlag>  (93) 
N

>  <InsertionCode>  (93) 


>  <InstanceId>  (93) 
6GPB_H2P_A_998

>  <ChemCompId>  (93) 
H2P

>  <PdbId>  (93) 
6GPB

>  <ResidueNumber>  (93) 
998

>  <InChI>  (93) 
InChI=1S/C7H15O9P/c1-7(16-17(12,13)14)6(11)5(10)4(9)3(2-8)15-7/h3-6,8-11H,2H2,1H3,(H2,12,13,14)/t3-,4-,5+,6-,7-/m1/s1

>  <InChIKey>  (93) 
QZBAZODTRUGOQS-XUUWZHRGSA-N

>  <SMILES>  (93) 
C[C@]1([C@@H]([C@H]([C@@H]([C@H](O1)CO)O)O)O)OP(=O)(O)O

>  <MissingHeavyAtoms>  (93) 
0

>  <Model>  (93) 
1

>  <AltIds>  (93) 


>  <pKI>  (93) 
3.67

>  <ChemblID>  (93) 
-

>  <standardized_canonical_smiles>  (93) 
COC(=O)C(=O)N[C@@H]1O[C@H](CO)[C@@H](O)[C@H](O)[C@H]1O

$$$$
1FU7_CR1_A_998
     RDKit          3D

 16 16  0  0  0  0  0  0  0  0999 V2000
   34.0510   23.0920   26.2420 C   0  0  0  0  0  0  0  0  0  0  0  0
   34.1430   24.5150   26.0780 O   0  0  0  0  0  0  0  0  0  0  0  0
   32.5440   21.0560   25.9050 C   0  0  0  0  0  0  0  0  0  0  0  0
   32.4350   20.8950   27.4650 C   0  0  0  0  0  0  0  0  0  0  0  0
   32.2510   19.4510   27.8610 C   0  0  0  0  0  0  0  0  0  0  0  0
   34.0210   22.7170   27.7560 C   0  0  0  0  0  0  0  0  0  0  0  0
   32.7780   22.5400   25.5600 C   0  0  0  0  0  0  0  0  0  0  0  0
   32.8810   22.6490   24.1590 O   0  0  0  0  0  0  0  0  0  0  0  0
   31.3940   20.5510   25.2830 O   0  0  0  0  0  0  0  0  0  0  0  0
   33.6450   21.3530   28.0640 O   0  0  0  0  0  0  0  0  0  0  0  0
   35.3810   22.8510   28.1840 N   0  0  0  0  0  0  0  0  0  0  0  0
   33.2440   18.6690   27.2580 O   0  0  0  0  0  0  0  0  0  0  0  0
   35.7480   23.3940   29.3390 C   0  0  0  0  0  0  0  0  0  0  0  0
   34.9490   23.8440   30.1590 O   0  0  0  0  0  0  0  0  0  0  0  0
   37.5840   23.7810   30.7640 C   0  0  0  0  0  0  0  0  0  0  0  0
   37.1010   23.6860   29.4350 O   0  0  0  0  0  0  0  0  0  0  0  0
  2  1  1  0
  6  1  1  0
  7  1  1  0
  4  3  1  0
  7  3  1  0
  9  3  1  0
  5  4  1  0
 10  4  1  0
 12  5  1  0
 10  6  1  0
 11  6  1  0
  8  7  1  0
 13 11  1  0
 14 13  2  0
 16 13  1  0
 16 15  1  0
A    1
C2
A    2
O2
A    3
C4
A    4
C5
A    5
C6
A    6
C1
A    7
C3
A    8
O3
A    9
O4
A   10
O5
A   11
N2
A   12
O6
A   13
C7
A   14
O7
A   15
C8
A   16
O8
M  END
>  <Id>  (94) 
1FU7_CR1_A_998

>  <ChainId>  (94) 
A

>  <AsymId>  (94) 
B

>  <SeqNum>  (94) 
998

>  <Name>  (94) 
1-DEOXY-1-METHOXYCARBAMIDO-BETA-D-GLUCOPYRANOSE

>  <SystematicName>  (94) 
methyl N-[(2R,3R,4S,5S,6R)-3,4,5-trihydroxy-6-(hydroxymethyl)oxan-2-yl]carbamate

>  <Synonyms>  (94) 


>  <Type>  (94) 
D-SACCHARIDE

>  <Formula>  (94) 
C8 H15 N O7

>  <ObservedFormula>  (94) 
C8 N O7

>  <MolecularWeight>  (94) 
237.207

>  <ModifiedDate>  (94) 
2011-06-04

>  <Parent>  (94) 


>  <OneLetterCode>  (94) 


>  <SubcomponentList>  (94) 


>  <AmbiguousFlag>  (94) 
N

>  <InsertionCode>  (94) 


>  <InstanceId>  (94) 
1FU7_CR1_A_998

>  <ChemCompId>  (94) 
CR1

>  <PdbId>  (94) 
1FU7

>  <ResidueNumber>  (94) 
998

>  <InChI>  (94) 
InChI=1S/C8H15NO7/c1-15-8(14)9-7-6(13)5(12)4(11)3(2-10)16-7/h3-7,10-13H,2H2,1H3,(H,9,14)/t3-,4-,5+,6-,7-/m1/s1

>  <InChIKey>  (94) 
IZZJOGWXTFEDLL-XUUWZHRGSA-N

>  <SMILES>  (94) 
COC(=O)N[C@H]1[C@@H]([C@H]([C@@H]([C@H](O1)CO)O)O)O

>  <MissingHeavyAtoms>  (94) 
0

>  <Model>  (94) 
1

>  <AltIds>  (94) 


>  <pKI>  (94) 
3.88

>  <ChemblID>  (94) 
-

>  <standardized_canonical_smiles>  (94) 
COC(=O)N[C@@H]1O[C@H](CO)[C@@H](O)[C@H](O)[C@H]1O

$$$$
1XC7_GL6_A_998
     RDKit          3D

 18 18  0  0  0  0  0  0  0  0999 V2000
   35.5980   24.2550   29.6110 P   0  0  0  0  0  0  0  0  0  0  0  0
   34.2820   24.5730   30.1410 O   0  0  0  0  0  0  0  0  0  0  0  0
   36.4630   25.4750   29.1850 O   0  0  0  0  0  0  0  0  0  0  0  0
   36.5020   23.5310   30.6860 O   0  0  0  0  0  0  0  0  0  0  0  0
   34.4400   24.5630   25.9640 O   0  0  0  0  0  0  0  0  0  0  0  0
   33.0360   22.7260   24.0930 O   0  0  0  0  0  0  0  0  0  0  0  0
   31.4830   20.7690   25.3230 O   0  0  0  0  0  0  0  0  0  0  0  0
   33.9540   21.5180   27.9940 O   0  0  0  0  0  0  0  0  0  0  0  0
   33.3720   18.7700   27.2620 O   0  0  0  0  0  0  0  0  0  0  0  0
   35.5000   23.3380   28.2520 N   0  0  0  0  0  0  0  0  0  0  0  0
   34.2210   22.9320   27.6990 C   0  0  0  0  0  0  0  0  0  0  0  0
   37.9190   23.6590   30.7710 C   0  0  0  0  0  0  0  0  0  0  0  0
   35.8870   26.4860   28.3390 C   0  0  0  0  0  0  0  0  0  0  0  0
   34.2470   23.1410   26.1620 C   0  0  0  0  0  0  0  0  0  0  0  0
   32.9550   22.6600   25.5370 C   0  0  0  0  0  0  0  0  0  0  0  0
   32.7220   21.2050   25.9180 C   0  0  0  0  0  0  0  0  0  0  0  0
   32.6650   21.0580   27.4570 C   0  0  0  0  0  0  0  0  0  0  0  0
   32.4420   19.6410   27.9310 C   0  0  0  0  0  0  0  0  0  0  0  0
  2  1  2  0
  3  1  1  0
  4  1  1  0
 10  1  1  0
 13  3  1  0
 12  4  1  0
 14  5  1  0
 15  6  1  0
 16  7  1  0
 11  8  1  0
 17  8  1  0
 18  9  1  0
 11 10  1  0
 14 11  1  0
 15 14  1  0
 16 15  1  0
 17 16  1  0
 18 17  1  0
A    1
P
A    2
O11
A    3
O13
A    4
O12
A    5
O2
A    6
O3
A    7
O4
A    8
O5
A    9
O6
A   10
N1
A   11
C1
A   12
C15
A   13
C16
A   14
C2
A   15
C3
A   16
C4
A   17
C5
A   18
C6
M  END
>  <Id>  (95) 
1XC7_GL6_A_998

>  <ChainId>  (95) 
A

>  <AsymId>  (95) 
B

>  <SeqNum>  (95) 
998

>  <Name>  (95) 
(3,4,5-TRIHYDROXY-6-HYDROXYMETHYL-TETRAHYDRO-PYRAN-2-YL)-PHOSPHORAMIDIC ACID DIMETHYL ESTER

>  <SystematicName>  (95) 
(2R,3R,4S,5S,6R)-2-(dimethoxyphosphorylamino)-6-(hydroxymethyl)oxane-3,4,5-triol

>  <Synonyms>  (95) 


>  <Type>  (95) 
SACCHARIDE

>  <Formula>  (95) 
C8 H18 N O8 P

>  <ObservedFormula>  (95) 
P C8 N O8

>  <MolecularWeight>  (95) 
287.204

>  <ModifiedDate>  (95) 
2011-06-04

>  <Parent>  (95) 


>  <OneLetterCode>  (95) 


>  <SubcomponentList>  (95) 


>  <AmbiguousFlag>  (95) 
N

>  <InsertionCode>  (95) 


>  <InstanceId>  (95) 
1XC7_GL6_A_998

>  <ChemCompId>  (95) 
GL6

>  <PdbId>  (95) 
1XC7

>  <ResidueNumber>  (95) 
998

>  <InChI>  (95) 
InChI=1S/C8H18NO8P/c1-15-18(14,16-2)9-8-7(13)6(12)5(11)4(3-10)17-8/h4-8,10-13H,3H2,1-2H3,(H,9,14)/t4-,5-,6+,7-,8-/m1/s1

>  <InChIKey>  (95) 
LJBUJRWZZYUNKX-JAJWTYFOSA-N

>  <SMILES>  (95) 
COP(=O)(N[C@H]1[C@@H]([C@H]([C@@H]([C@H](O1)CO)O)O)O)OC

>  <MissingHeavyAtoms>  (95) 
0

>  <Model>  (95) 
1

>  <AltIds>  (95) 


>  <pKI>  (95) 
2.26

>  <ChemblID>  (95) 
-

>  <standardized_canonical_smiles>  (95) 
COP(=O)(N[C@@H]1O[C@H](CO)[C@@H](O)[C@H](O)[C@H]1O)OC

$$$$
3L7B_DKZ_A_843
     RDKit          3D

 19 20  0  0  0  0  0  0  0  0999 V2000
   33.5240   23.0750   27.9440 C   0  0  0  0  0  0  0  0  0  0  0  0
   34.4430   23.6190   28.9700 N   0  0  0  0  0  0  0  0  0  0  0  0
   33.9200   23.2540   26.4660 C   0  0  0  0  0  0  0  0  0  0  0  0
   34.6850   24.6950   31.0670 N   0  0  0  0  0  0  0  0  0  0  0  0
   34.0220   24.6580   26.1230 O   0  0  0  0  0  0  0  0  0  0  0  0
   32.9030   22.5180   25.5640 C   0  0  0  0  0  0  0  0  0  0  0  0
   33.3660   22.4660   24.2700 F   0  0  0  0  0  0  0  0  0  0  0  0
   36.7690   25.1020   31.9630 N   0  0  0  0  0  0  0  0  0  0  0  0
   32.6270   21.0760   26.0550 C   0  0  0  0  0  0  0  0  0  0  0  0
   31.4530   20.5980   25.4070 O   0  0  0  0  0  0  0  0  0  0  0  0
   32.4370   20.9640   27.5870 C   0  0  0  0  0  0  0  0  0  0  0  0
   33.5080   21.6490   28.2840 O   0  0  0  0  0  0  0  0  0  0  0  0
   32.4400   19.4970   28.0600 C   0  0  0  0  0  0  0  0  0  0  0  0
   33.5580   18.8170   27.4710 O   0  0  0  0  0  0  0  0  0  0  0  0
   35.8480   23.5100   28.8480 C   0  0  0  0  0  0  0  0  0  0  0  0
   36.6580   24.0250   29.8600 C   0  0  0  0  0  0  0  0  0  0  0  0
   36.0320   24.6140   30.9690 C   0  0  0  0  0  0  0  0  0  0  0  0
   33.8780   24.2030   30.1050 C   0  0  0  0  0  0  0  0  0  0  0  0
   32.6450   24.2800   30.2020 O   0  0  0  0  0  0  0  0  0  0  0  0
  2  1  1  0
  3  1  1  0
 12  1  1  0
 15  2  1  0
 18  2  1  0
  5  3  1  0
  6  3  1  0
 17  4  2  0
 18  4  1  0
  7  6  1  0
  9  6  1  0
 17  8  1  0
 10  9  1  0
 11  9  1  0
 12 11  1  0
 13 11  1  0
 14 13  1  0
 16 15  2  0
 17 16  1  0
 19 18  2  0
A    1
C1
A    2
N1
A    3
C2
A    4
N2
A    5
O2
A    6
C3
A    7
F3
A    8
N3
A    9
C4
A   10
O4
A   11
C5
A   12
O5
A   13
C6
A   14
O6
A   15
C7
A   16
C8
A   17
C9
A   18
C10
A   19
O10
M  END
>  <Id>  (96) 
3L7B_DKZ_A_843

>  <ChainId>  (96) 
A

>  <AsymId>  (96) 
B

>  <SeqNum>  (96) 
843

>  <Name>  (96) 
4-amino-1-(3-deoxy-3-fluoro-beta-D-glucopyranosyl)pyrimidin-2(1H)-one

>  <SystematicName>  (96) 
4-azanyl-1-[(2R,3S,4S,5R,6R)-4-fluoro-3,5-dihydroxy-6-(hydroxymethyl)oxan-2-yl]pyrimidin-2-one

>  <Synonyms>  (96) 


>  <Type>  (96) 
NON-POLYMER

>  <Formula>  (96) 
C10 H14 F N3 O5

>  <ObservedFormula>  (96) 
C10 F N3 O5

>  <MolecularWeight>  (96) 
275.234

>  <ModifiedDate>  (96) 
2011-06-04

>  <Parent>  (96) 


>  <OneLetterCode>  (96) 


>  <SubcomponentList>  (96) 


>  <AmbiguousFlag>  (96) 
N

>  <InsertionCode>  (96) 


>  <InstanceId>  (96) 
3L7B_DKZ_A_843

>  <ChemCompId>  (96) 
DKZ

>  <PdbId>  (96) 
3L7B

>  <ResidueNumber>  (96) 
843

>  <InChI>  (96) 
InChI=1S/C10H14FN3O5/c11-6-7(16)4(3-15)19-9(8(6)17)14-2-1-5(12)13-10(14)18/h1-2,4,6-9,15-17H,3H2,(H2,12,13,18)/t4-,6+,7-,8-,9-/m1/s1

>  <InChIKey>  (96) 
AGFREDUIXIMAKC-PMPOVCSBSA-N

>  <SMILES>  (96) 
C1=CN(C(=O)N=C1N)[C@H]2[C@@H]([C@H]([C@@H]([C@H](O2)CO)O)F)O

>  <MissingHeavyAtoms>  (96) 
0

>  <Model>  (96) 
1

>  <AltIds>  (96) 


>  <pKI>  (96) 
2.4

>  <ChemblID>  (96) 
-

>  <standardized_canonical_smiles>  (96) 
Nc1ccn([C@@H]2O[C@H](CO)[C@@H](O)[C@H](F)[C@H]2O)c(=O)n1

$$$$
1GG8_GLG_A_998
     RDKit          3D

 14 14  0  0  0  0  0  0  0  0999 V2000
   34.0980   22.6600   27.7810 C   0  0  0  0  0  0  0  0  0  0  0  0
   34.2060   23.0310   26.2430 C   0  0  0  0  0  0  0  0  0  0  0  0
   32.9120   22.5190   25.4950 C   0  0  0  0  0  0  0  0  0  0  0  0
   32.5550   21.0510   25.8660 C   0  0  0  0  0  0  0  0  0  0  0  0
   32.4370   20.9070   27.4550 C   0  0  0  0  0  0  0  0  0  0  0  0
   32.1560   19.4470   27.8130 C   0  0  0  0  0  0  0  0  0  0  0  0
   34.3460   24.4350   26.1280 O   0  0  0  0  0  0  0  0  0  0  0  0
   33.1050   22.5530   24.0830 O   0  0  0  0  0  0  0  0  0  0  0  0
   31.3600   20.6320   25.2250 O   0  0  0  0  0  0  0  0  0  0  0  0
   33.7040   21.2940   28.0450 O   0  0  0  0  0  0  0  0  0  0  0  0
   33.2610   18.6580   27.3810 O   0  0  0  0  0  0  0  0  0  0  0  0
   31.8990   23.7730   28.6420 N   0  0  0  0  0  0  0  0  0  0  0  0
   33.2210   23.5990   28.6340 C   0  0  0  0  0  0  0  0  0  0  0  0
   33.9570   24.1360   29.4540 O   0  0  0  0  0  0  0  0  0  0  0  0
  2  1  1  0
 10  1  1  0
 13  1  1  0
  3  2  1  0
  7  2  1  0
  4  3  1  0
  8  3  1  0
  5  4  1  0
  9  4  1  0
  6  5  1  0
 10  5  1  0
 11  6  1  0
 13 12  1  0
 14 13  2  0
A    1
C1
A    2
C2
A    3
C3
A    4
C4
A    5
C5
A    6
C6
A    7
O2
A    8
O3
A    9
O4
A   10
O5
A   11
O6
A   12
N
A   13
C7
A   14
O7
M  END
>  <Id>  (97) 
1GG8_GLG_A_998

>  <ChainId>  (97) 
A

>  <AsymId>  (97) 
B

>  <SeqNum>  (97) 
998

>  <Name>  (97) 
ALPHA-D-GLUCOPYRANOSYL-2-CARBOXYLIC ACID AMIDE

>  <SystematicName>  (97) 
(2S,3R,4S,5S,6R)-3,4,5-trihydroxy-6-(hydroxymethyl)oxane-2-carboxamide

>  <Synonyms>  (97) 


>  <Type>  (97) 
SACCHARIDE

>  <Formula>  (97) 
C7 H13 N O6

>  <ObservedFormula>  (97) 
C7 N O6

>  <MolecularWeight>  (97) 
207.181

>  <ModifiedDate>  (97) 
2011-06-04

>  <Parent>  (97) 


>  <OneLetterCode>  (97) 


>  <SubcomponentList>  (97) 


>  <AmbiguousFlag>  (97) 
N

>  <InsertionCode>  (97) 


>  <InstanceId>  (97) 
1GG8_GLG_A_998

>  <ChemCompId>  (97) 
GLG

>  <PdbId>  (97) 
1GG8

>  <ResidueNumber>  (97) 
998

>  <InChI>  (97) 
InChI=1S/C7H13NO6/c8-7(13)6-5(12)4(11)3(10)2(1-9)14-6/h2-6,9-12H,1H2,(H2,8,13)/t2-,3-,4+,5-,6+/m1/s1

>  <InChIKey>  (97) 
UKWLGCFJAVEFPE-DVKNGEFBSA-N

>  <SMILES>  (97) 
C([C@@H]1[C@H]([C@@H]([C@H]([C@H](O1)C(=O)N)O)O)O)O

>  <MissingHeavyAtoms>  (97) 
0

>  <Model>  (97) 
1

>  <AltIds>  (97) 


>  <pKI>  (97) 
3.2

>  <ChemblID>  (97) 
-

>  <standardized_canonical_smiles>  (97) 
NC(=O)[C@H]1O[C@H](CO)[C@@H](O)[C@H](O)[C@H]1O

$$$$
1P4J_CBF_A_998
     RDKit          3D

 15 15  0  0  0  0  0  0  0  0999 V2000
   33.3440   18.7840   27.2540 O   0  0  0  0  0  0  0  0  0  0  0  0
   32.2450   19.4900   27.7960 C   0  0  0  0  0  0  0  0  0  0  0  0
   32.3310   20.9740   27.4350 C   0  0  0  0  0  0  0  0  0  0  0  0
   33.4270   21.5780   28.1440 O   0  0  0  0  0  0  0  0  0  0  0  0
   33.5530   22.9940   27.9300 C   0  0  0  0  0  0  0  0  0  0  0  0
   32.3500   23.6550   28.2690 O   0  0  0  0  0  0  0  0  0  0  0  0
   34.6640   23.5360   28.8230 C   0  0  0  0  0  0  0  0  0  0  0  0
   34.3480   24.1460   29.8490 O   0  0  0  0  0  0  0  0  0  0  0  0
   35.9200   23.1850   28.5690 N   0  0  0  0  0  0  0  0  0  0  0  0
   33.8680   23.2410   26.4490 C   0  0  0  0  0  0  0  0  0  0  0  0
   33.9920   24.6260   26.1980 O   0  0  0  0  0  0  0  0  0  0  0  0
   32.7500   22.6380   25.5850 C   0  0  0  0  0  0  0  0  0  0  0  0
   33.0690   22.7620   24.2150 O   0  0  0  0  0  0  0  0  0  0  0  0
   32.5370   21.1590   25.9260 C   0  0  0  0  0  0  0  0  0  0  0  0
   31.4180   20.6670   25.2200 O   0  0  0  0  0  0  0  0  0  0  0  0
  2  1  1  0
  3  2  1  0
  4  3  1  0
 14  3  1  0
  5  4  1  0
  6  5  1  0
  7  5  1  0
 10  5  1  0
  8  7  2  0
  9  7  1  0
 11 10  1  0
 12 10  1  0
 13 12  1  0
 14 12  1  0
 15 14  1  0
A    1
O6
A    2
C6
A    3
C5
A    4
O5
A    5
C1
A    6
O1
A    7
C7
A    8
O7
A    9
N1
A   10
C2
A   11
O2
A   12
C3
A   13
O3
A   14
C4
A   15
O4
M  END
>  <Id>  (98) 
1P4J_CBF_A_998

>  <ChainId>  (98) 
A

>  <AsymId>  (98) 
C

>  <SeqNum>  (98) 
998

>  <Name>  (98) 
C-(1-HYDROGYL-BETA-D-GLUCOPYRANOSYL) FORMAMIDE

>  <SystematicName>  (98) 
(2R,3R,4S,5S,6R)-2,3,4,5-tetrahydroxy-6-(hydroxymethyl)oxane-2-carboxamide

>  <Synonyms>  (98) 


>  <Type>  (98) 
NON-POLYMER

>  <Formula>  (98) 
C7 H13 N O7

>  <ObservedFormula>  (98) 
C7 N O7

>  <MolecularWeight>  (98) 
223.181

>  <ModifiedDate>  (98) 
2011-06-04

>  <Parent>  (98) 


>  <OneLetterCode>  (98) 


>  <SubcomponentList>  (98) 


>  <AmbiguousFlag>  (98) 
N

>  <InsertionCode>  (98) 


>  <InstanceId>  (98) 
1P4J_CBF_A_998

>  <ChemCompId>  (98) 
CBF

>  <PdbId>  (98) 
1P4J

>  <ResidueNumber>  (98) 
998

>  <InChI>  (98) 
InChI=1S/C7H13NO7/c8-6(13)7(14)5(12)4(11)3(10)2(1-9)15-7/h2-5,9-12,14H,1H2,(H2,8,13)/t2-,3-,4+,5-,7-/m1/s1

>  <InChIKey>  (98) 
DTZYCNDAJQDPQC-UHKLXPPTSA-N

>  <SMILES>  (98) 
C([C@@H]1[C@H]([C@@H]([C@H]([C@@](O1)(C(=O)N)O)O)O)O)O

>  <MissingHeavyAtoms>  (98) 
0

>  <Model>  (98) 
1

>  <AltIds>  (98) 


>  <pKI>  (98) 
3.06

>  <ChemblID>  (98) 
-

>  <standardized_canonical_smiles>  (98) 
NC(=O)[C@]1(O)O[C@H](CO)[C@@H](O)[C@H](O)[C@H]1O

$$$$
1FTQ_GL2_A_998
     RDKit          3D

 18 19  0  0  0  0  0  0  0  0999 V2000
   33.9380   22.7320   27.7550 C   0  0  0  0  0  0  0  0  0  0  0  0
   33.9120   23.0630   26.2390 C   0  0  0  0  0  0  0  0  0  0  0  0
   33.9670   24.4510   26.0080 O   0  0  0  0  0  0  0  0  0  0  0  0
   32.6330   22.4750   25.5960 C   0  0  0  0  0  0  0  0  0  0  0  0
   32.7720   22.6430   24.1970 O   0  0  0  0  0  0  0  0  0  0  0  0
   32.4970   20.9670   25.9410 C   0  0  0  0  0  0  0  0  0  0  0  0
   31.3310   20.5310   25.3120 O   0  0  0  0  0  0  0  0  0  0  0  0
   32.3930   20.8120   27.4750 C   0  0  0  0  0  0  0  0  0  0  0  0
   32.1950   19.4220   27.9430 C   0  0  0  0  0  0  0  0  0  0  0  0
   33.2270   18.6060   27.3850 O   0  0  0  0  0  0  0  0  0  0  0  0
   33.6110   21.3100   28.0530 O   0  0  0  0  0  0  0  0  0  0  0  0
   35.2700   23.0360   28.2060 N   0  0  0  0  0  0  0  0  0  0  0  0
   35.1650   23.9410   29.1800 C   0  0  0  0  0  0  0  0  0  0  0  0
   36.1360   24.3990   29.7760 O   0  0  0  0  0  0  0  0  0  0  0  0
   33.9200   24.3460   29.4760 N   0  0  0  0  0  0  0  0  0  0  0  0
   33.1140   23.6580   28.6660 C   0  0  0  0  0  0  0  0  0  0  0  0
   31.8610   23.7560   28.6570 O   0  0  0  0  0  0  0  0  0  0  0  0
   33.5480   25.3010   30.4320 N   0  0  0  0  0  0  0  0  0  0  0  0
  2  1  1  0
 11  1  1  0
 12  1  1  0
 16  1  1  0
  3  2  1  0
  4  2  1  0
  5  4  1  0
  6  4  1  0
  7  6  1  0
  8  6  1  0
  9  8  1  0
 11  8  1  0
 10  9  1  0
 13 12  1  0
 14 13  2  0
 15 13  1  0
 16 15  1  0
 18 15  1  0
 17 16  2  0
A    1
C1
A    2
C2
A    3
O2
A    4
C3
A    5
O3
A    6
C4
A    7
O4
A    8
C5
A    9
C6
A   10
O6
A   11
O5
A   12
N2
A   13
C8
A   14
O8
A   15
N1
A   16
C7
A   17
O7
A   18
N3
M  END
>  <Id>  (99) 
1FTQ_GL2_A_998

>  <ChainId>  (99) 
A

>  <AsymId>  (99) 
B

>  <SeqNum>  (99) 
998

>  <Name>  (99) 
3-AMINO-8,9,10-TRIHYDROXY-7-HYDROXYMETHYL-6-OXA-1,3-DIAZA-SPIRO[4.5]DECANE-2,4-DIONE

>  <SystematicName>  (99) 
(5S,6R,7S,8S,9R)-3-amino-6,7,8-trihydroxy-9-(hydroxymethyl)-10-oxa-1,3-diazaspiro[4.5]decane-2,4-dione

>  <Synonyms>  (99) 


>  <Type>  (99) 
D-SACCHARIDE

>  <Formula>  (99) 
C8 H13 N3 O7

>  <ObservedFormula>  (99) 
C8 N3 O7

>  <MolecularWeight>  (99) 
263.205

>  <ModifiedDate>  (99) 
2011-06-04

>  <Parent>  (99) 


>  <OneLetterCode>  (99) 


>  <SubcomponentList>  (99) 


>  <AmbiguousFlag>  (99) 
N

>  <InsertionCode>  (99) 


>  <InstanceId>  (99) 
1FTQ_GL2_A_998

>  <ChemCompId>  (99) 
GL2

>  <PdbId>  (99) 
1FTQ

>  <ResidueNumber>  (99) 
998

>  <InChI>  (99) 
InChI=1S/C8H13N3O7/c9-11-6(16)8(10-7(11)17)5(15)4(14)3(13)2(1-12)18-8/h2-5,12-15H,1,9H2,(H,10,17)/t2-,3-,4+,5-,8+/m1/s1

>  <InChIKey>  (99) 
KLJXQBRQPPSXPZ-WWHASAIZSA-N

>  <SMILES>  (99) 
C([C@@H]1[C@H]([C@@H]([C@H]([C@]2(O1)C(=O)N(C(=O)N2)N)O)O)O)O

>  <MissingHeavyAtoms>  (99) 
0

>  <Model>  (99) 
1

>  <AltIds>  (99) 


>  <pKI>  (99) 
3.84

>  <ChemblID>  (99) 
-

>  <standardized_canonical_smiles>  (99) 
NN1C(=O)N[C@@]2(O[C@H](CO)[C@@H](O)[C@H](O)[C@H]2O)C1=O

$$$$
1P4G_CGF_A_998
     RDKit          3D

 17 17  0  0  0  0  0  0  0  0999 V2000
   33.6230   21.3060   27.8440 O   0  0  0  0  0  0  0  0  0  0  0  0
   33.9190   22.7370   27.5060 C   0  0  0  0  0  0  0  0  0  0  0  0
   32.8680   23.7120   28.1900 C   0  0  0  0  0  0  0  0  0  0  0  0
   32.6300   23.5740   29.4660 N   0  0  0  0  0  0  0  0  0  0  0  0
   32.2980   24.5550   27.5740 O   0  0  0  0  0  0  0  0  0  0  0  0
   35.1980   23.1370   28.0860 N   0  0  0  0  0  0  0  0  0  0  0  0
   35.4250   23.0410   29.2570 N   0  0  0  0  0  0  0  0  0  0  0  0
   35.6230   22.9080   30.4170 N   0  0  0  0  0  0  0  0  0  0  0  0
   34.0950   22.9620   25.9570 C   0  0  0  0  0  0  0  0  0  0  0  0
   34.3740   24.3220   25.6410 O   0  0  0  0  0  0  0  0  0  0  0  0
   32.7770   22.4690   25.2250 C   0  0  0  0  0  0  0  0  0  0  0  0
   32.9150   22.6520   23.7880 O   0  0  0  0  0  0  0  0  0  0  0  0
   32.5250   20.9570   25.6240 C   0  0  0  0  0  0  0  0  0  0  0  0
   31.3360   20.5430   24.9480 O   0  0  0  0  0  0  0  0  0  0  0  0
   32.3780   20.8390   27.2430 C   0  0  0  0  0  0  0  0  0  0  0  0
   32.1510   19.3730   27.6900 C   0  0  0  0  0  0  0  0  0  0  0  0
   33.2060   18.5860   27.1330 O   0  0  0  0  0  0  0  0  0  0  0  0
  2  1  1  0
 15  1  1  0
  3  2  1  0
  6  2  1  0
  9  2  1  0
  4  3  1  0
  5  3  1  0
  7  6  2  0
  8  7  2  0
 10  9  1  0
 11  9  1  0
 12 11  1  0
 13 11  1  0
 14 13  1  0
 15 13  1  0
 16 15  1  0
 17 16  1  0
M  CHG  2   7   1   8  -1
A    1
O5
A    2
C1
A    3
C7
A    4
N7
A    5
O7
A    6
N1
A    7
N2
A    8
N3
A    9
C2
A   10
O2
A   11
C3
A   12
O3
A   13
C4
A   14
O4
A   15
C5
A   16
C6
A   17
O6
M  END
>  <Id>  (100) 
1P4G_CGF_A_998

>  <ChainId>  (100) 
A

>  <AsymId>  (100) 
B

>  <SeqNum>  (100) 
998

>  <Name>  (100) 
C-(1-AZIDO-ALPHA-D-GLUCOPYRANOSYL) FORMAMIDE

>  <SystematicName>  (100) 
(2S,3R,4S,5S,6R)-2-(amino-hydroxy-methyl)-2-azido-6-(hydroxymethyl)oxane-3,4,5-triol

>  <Synonyms>  (100) 


>  <Type>  (100) 
D-SACCHARIDE

>  <Formula>  (100) 
C7 H14 N4 O6

>  <ObservedFormula>  (100) 
C7 N4 O6

>  <MolecularWeight>  (100) 
250.209

>  <ModifiedDate>  (100) 
2011-06-04

>  <Parent>  (100) 


>  <OneLetterCode>  (100) 


>  <SubcomponentList>  (100) 


>  <AmbiguousFlag>  (100) 
N

>  <InsertionCode>  (100) 


>  <InstanceId>  (100) 
1P4G_CGF_A_998

>  <ChemCompId>  (100) 
CGF

>  <PdbId>  (100) 
1P4G

>  <ResidueNumber>  (100) 
998

>  <InChI>  (100) 
InChI=1S/C7H14N4O6/c8-6(16)7(10-11-9)5(15)4(14)3(13)2(1-12)17-7/h2-6,12-16H,1,8H2/t2-,3-,4+,5-,6?,7+/m1/s1

>  <InChIKey>  (100) 
LAKOUYZWWLMCSL-JBFGQTLDSA-N

>  <SMILES>  (100) 
C([C@@H]1[C@H]([C@@H]([C@H]([C@](O1)(C(N)O)N=[N+]=[N-])O)O)O)O

>  <MissingHeavyAtoms>  (100) 
0

>  <Model>  (100) 
1

>  <AltIds>  (100) 


>  <pKI>  (100) 
2.74

>  <ChemblID>  (100) 
-

>  <standardized_canonical_smiles>  (100) 
[N-]=[N+]=N[C@]1(C(N)O)O[C@H](CO)[C@@H](O)[C@H](O)[C@H]1O

$$$$
5MEM_7LS_A_902
     RDKit          3D

 34 38  0  0  0  0  0  0  0  0999 V2000
   36.7170   26.5690   35.3320 C   0  0  0  0  0  0  0  0  0  0  0  0
   37.6600   27.7120   37.1650 C   0  0  0  0  0  0  0  0  0  0  0  0
   38.9100   27.7470   36.5480 C   0  0  0  0  0  0  0  0  0  0  0  0
   33.9830   24.1260   29.9070 C   0  0  0  0  0  0  0  0  0  0  0  0
   32.7760   24.2900   30.0710 O   0  0  0  0  0  0  0  0  0  0  0  0
   38.0330   25.9780   33.3980 C   0  0  0  0  0  0  0  0  0  0  0  0
   37.9480   26.5700   34.6660 C   0  0  0  0  0  0  0  0  0  0  0  0
   39.0680   27.1630   35.2840 C   0  0  0  0  0  0  0  0  0  0  0  0
   40.1700   27.1800   34.7230 O   0  0  0  0  0  0  0  0  0  0  0  0
   39.9770   28.3610   37.2140 C   0  0  0  0  0  0  0  0  0  0  0  0
   39.8000   28.9290   38.4700 C   0  0  0  0  0  0  0  0  0  0  0  0
   38.5530   28.8960   39.0790 C   0  0  0  0  0  0  0  0  0  0  0  0
   37.4870   28.2880   38.4210 C   0  0  0  0  0  0  0  0  0  0  0  0
   36.6070   27.1300   36.5520 N   0  0  0  0  0  0  0  0  0  0  0  0
   35.6020   25.9760   34.7330 C   0  0  0  0  0  0  0  0  0  0  0  0
   35.6990   25.3840   33.4710 C   0  0  0  0  0  0  0  0  0  0  0  0
   36.9230   25.3810   32.7850 C   0  0  0  0  0  0  0  0  0  0  0  0
   37.1450   24.8430   31.5610 N   0  0  0  0  0  0  0  0  0  0  0  0
   36.2020   24.4220   30.6900 C   0  0  0  0  0  0  0  0  0  0  0  0
   36.6690   23.7570   29.5650 C   0  0  0  0  0  0  0  0  0  0  0  0
   35.7710   23.2770   28.6270 C   0  0  0  0  0  0  0  0  0  0  0  0
   34.8670   24.5970   30.8230 N   0  0  0  0  0  0  0  0  0  0  0  0
   34.4010   23.4860   28.8020 N   0  0  0  0  0  0  0  0  0  0  0  0
   33.4160   22.9510   27.8250 C   0  0  0  0  0  0  0  0  0  0  0  0
   33.3920   21.5250   28.1140 O   0  0  0  0  0  0  0  0  0  0  0  0
   32.2700   20.9160   27.4370 C   0  0  0  0  0  0  0  0  0  0  0  0
   32.1520   19.4610   27.8760 C   0  0  0  0  0  0  0  0  0  0  0  0
   33.2300   18.7310   27.2640 O   0  0  0  0  0  0  0  0  0  0  0  0
   32.4260   21.0670   25.9050 C   0  0  0  0  0  0  0  0  0  0  0  0
   31.2430   20.5660   25.2430 O   0  0  0  0  0  0  0  0  0  0  0  0
   32.6500   22.5340   25.5140 C   0  0  0  0  0  0  0  0  0  0  0  0
   33.0150   22.6100   24.1340 O   0  0  0  0  0  0  0  0  0  0  0  0
   33.7650   23.1530   26.3690 C   0  0  0  0  0  0  0  0  0  0  0  0
   33.9040   24.5530   26.1030 O   0  0  0  0  0  0  0  0  0  0  0  0
  7  1  1  0
 14  1  1  0
 15  1  2  0
  3  2  2  0
 13  2  1  0
 14  2  1  0
  8  3  1  0
 10  3  1  0
  5  4  2  0
 22  4  1  0
 23  4  1  0
  7  6  2  0
 17  6  1  0
  8  7  1  0
  9  8  2  0
 11 10  2  0
 12 11  1  0
 13 12  2  0
 16 15  1  0
 17 16  2  0
 18 17  1  0
 19 18  1  0
 20 19  1  0
 22 19  2  0
 21 20  2  0
 23 21  1  0
 24 23  1  0
 25 24  1  0
 33 24  1  0
 26 25  1  0
 27 26  1  0
 29 26  1  0
 28 27  1  0
 30 29  1  0
 31 29  1  0
 32 31  1  0
 33 31  1  0
 34 33  1  0
A    1
C1
A    2
C2
A    3
C3
A    4
C4
A    5
O1
A    6
C5
A    7
C6
A    8
C7
A    9
O2
A   10
C8
A   11
C9
A   12
C10
A   13
C11
A   14
N1
A   15
C12
A   16
C13
A   17
C14
A   18
N2
A   19
C15
A   20
C16
A   21
C17
A   22
N3
A   23
N4
A   24
C18
A   25
O3
A   26
C19
A   27
C20
A   28
O4
A   29
C21
A   30
O5
A   31
C22
A   32
O6
A   33
C23
A   34
O7
M  END
>  <Id>  (101) 
5MEM_7LS_A_902

>  <ChainId>  (101) 
A

>  <AsymId>  (101) 
C

>  <SeqNum>  (101) 
902

>  <Name>  (101) 
2-[[1-[(2~{R},3~{R},4~{S},5~{S},6~{R})-6-(hydroxymethyl)-3,4,5-tris(oxidanyl)oxan-2-yl]-2-oxidanylidene-pyrimidin-4-yl]amino]-10~{H}-acridin-9-one

>  <SystematicName>  (101) 
2-[[1-[(2~{R},3~{R},4~{S},5~{S},6~{R})-6-(hydroxymethyl)-3,4,5-tris(oxidanyl)oxan-2-yl]-2-oxidanylidene-pyrimidin-4-yl]amino]-10~{H}-acridin-9-one

>  <Synonyms>  (101) 


>  <Type>  (101) 
NON-POLYMER

>  <Formula>  (101) 
C23 H22 N4 O7

>  <ObservedFormula>  (101) 
C23 N4 O7

>  <MolecularWeight>  (101) 
466.443

>  <ModifiedDate>  (101) 
2017-11-24

>  <Parent>  (101) 


>  <OneLetterCode>  (101) 


>  <SubcomponentList>  (101) 


>  <AmbiguousFlag>  (101) 
N

>  <InsertionCode>  (101) 


>  <InstanceId>  (101) 
5MEM_7LS_A_902

>  <ChemCompId>  (101) 
7LS

>  <PdbId>  (101) 
5MEM

>  <ResidueNumber>  (101) 
902

>  <InChI>  (101) 
InChI=1S/C23H22N4O7/c28-10-16-19(30)20(31)21(32)22(34-16)27-8-7-17(26-23(27)33)24-11-5-6-15-13(9-11)18(29)12-3-1-2-4-14(12)25-15/h1-9,16,19-22,28,30-32H,10H2,(H,25,29)(H,24,26,33)/t16-,19-,20+,21-,22-/m1/s1

>  <InChIKey>  (101) 
GFASNZAXNSUSSV-RECXWPGBSA-N

>  <SMILES>  (101) 
c1ccc2c(c1)C(=O)c3cc(ccc3N2)NC4=NC(=O)N(C=C4)[C@H]5[C@@H]([C@H]([C@@H]([C@H](O5)CO)O)O)O

>  <MissingHeavyAtoms>  (101) 
0

>  <Model>  (101) 
1

>  <AltIds>  (101) 


>  <pKI>  (101) 
7.15

>  <ChemblID>  (101) 
-

>  <standardized_canonical_smiles>  (101) 
O=c1c2ccccc2[nH]c2ccc(Nc3ccn([C@@H]4O[C@H](CO)[C@@H](O)[C@H](O)[C@H]4O)c(=O)n3)cc12

$$$$
3EBO_57D_A_940
     RDKit          3D

 19 21  0  0  0  0  0  0  0  0999 V2000
   38.0080   34.8180   29.2280 C   0  0  0  0  0  0  0  0  0  0  0  0
   37.1260   34.2620   30.1620 C   0  0  0  0  0  0  0  0  0  0  0  0
   36.9250   34.8990   31.3890 C   0  0  0  0  0  0  0  0  0  0  0  0
   37.6280   36.0800   31.6630 C   0  0  0  0  0  0  0  0  0  0  0  0
   37.5320   36.7360   32.8950 C   0  0  0  0  0  0  0  0  0  0  0  0
   38.2630   37.9000   33.1250 C   0  0  0  0  0  0  0  0  0  0  0  0
   39.1070   38.4050   32.1410 C   0  0  0  0  0  0  0  0  0  0  0  0
   39.2260   37.7520   30.9250 C   0  0  0  0  0  0  0  0  0  0  0  0
   38.4930   36.5890   30.6900 C   0  0  0  0  0  0  0  0  0  0  0  0
   38.6660   35.9860   29.4870 O   0  0  0  0  0  0  0  0  0  0  0  0
   36.1450   34.4180   32.2160 O   0  0  0  0  0  0  0  0  0  0  0  0
   36.7190   36.2810   33.8900 O   0  0  0  0  0  0  0  0  0  0  0  0
   39.8200   39.5380   32.3690 O   0  0  0  0  0  0  0  0  0  0  0  0
   38.6830   35.0410   26.9230 C   0  0  0  0  0  0  0  0  0  0  0  0
   38.9820   34.4750   25.6860 C   0  0  0  0  0  0  0  0  0  0  0  0
   38.8890   33.0960   25.5120 C   0  0  0  0  0  0  0  0  0  0  0  0
   38.4960   32.2820   26.5760 C   0  0  0  0  0  0  0  0  0  0  0  0
   38.2010   32.8460   27.8160 C   0  0  0  0  0  0  0  0  0  0  0  0
   38.2770   34.2310   27.9910 C   0  0  0  0  0  0  0  0  0  0  0  0
  2  1  2  0
 10  1  1  0
 19  1  1  0
  3  2  1  0
  4  3  1  0
 11  3  2  0
  5  4  2  0
  9  4  1  0
  6  5  1  0
 12  5  1  0
  7  6  2  0
  8  7  1  0
 13  7  1  0
  9  8  2  0
 10  9  1  0
 15 14  2  0
 19 14  1  0
 16 15  1  0
 17 16  2  0
 18 17  1  0
 19 18  2  0
A    1
C2
A    2
C3
A    3
C4
A    4
C5
A    5
C6
A    6
C7
A    7
C8
A    8
C9
A    9
C10
A   10
O1
A   11
O4
A   12
O5
A   13
O7
A   14
C2'
A   15
C3'
A   16
C4'
A   17
C5'
A   18
C6'
A   19
C1'
M  END
>  <Id>  (102) 
3EBO_57D_A_940

>  <ChainId>  (102) 
A

>  <AsymId>  (102) 
B

>  <SeqNum>  (102) 
940

>  <Name>  (102) 
chrysin

>  <SystematicName>  (102) 
5,7-dihydroxy-2-phenyl-chromen-4-one

>  <Synonyms>  (102) 
5,7-dihydroxy-2-phenyl-4H-chromen-4-one

>  <Type>  (102) 
NON-POLYMER

>  <Formula>  (102) 
C15 H10 O4

>  <ObservedFormula>  (102) 
C15 O4

>  <MolecularWeight>  (102) 
254.237

>  <ModifiedDate>  (102) 
2011-06-04

>  <Parent>  (102) 


>  <OneLetterCode>  (102) 


>  <SubcomponentList>  (102) 


>  <AmbiguousFlag>  (102) 
N

>  <InsertionCode>  (102) 


>  <InstanceId>  (102) 
3EBO_57D_A_940

>  <ChemCompId>  (102) 
57D

>  <PdbId>  (102) 
3EBO

>  <ResidueNumber>  (102) 
940

>  <InChI>  (102) 
InChI=1S/C15H10O4/c16-10-6-11(17)15-12(18)8-13(19-14(15)7-10)9-4-2-1-3-5-9/h1-8,16-17H

>  <InChIKey>  (102) 
RTIXKCRFFJGDFG-UHFFFAOYSA-N

>  <SMILES>  (102) 
c1ccc(cc1)C2=CC(=O)c3c(cc(cc3O2)O)O

>  <MissingHeavyAtoms>  (102) 
0

>  <Model>  (102) 
1

>  <AltIds>  (102) 


>  <pKI>  (102) 
4.72

>  <ChemblID>  (102) 
-

>  <standardized_canonical_smiles>  (102) 
O=c1cc(-c2ccccc2)oc2cc(O)cc(O)c12

$$$$
3L79_DKX_A_843
     RDKit          3D

 19 20  0  0  0  0  0  0  0  0999 V2000
   33.3790   22.8650   27.7770 C   0  0  0  0  0  0  0  0  0  0  0  0
   34.2690   23.5770   28.7220 N   0  0  0  0  0  0  0  0  0  0  0  0
   33.7620   23.0570   26.2970 C   0  0  0  0  0  0  0  0  0  0  0  0
   34.4670   24.8990   30.7290 N   0  0  0  0  0  0  0  0  0  0  0  0
   33.8460   24.4570   25.9890 O   0  0  0  0  0  0  0  0  0  0  0  0
   32.7410   22.3520   25.3860 C   0  0  0  0  0  0  0  0  0  0  0  0
   33.2030   22.3390   24.0830 F   0  0  0  0  0  0  0  0  0  0  0  0
   32.4510   20.9180   25.8740 C   0  0  0  0  0  0  0  0  0  0  0  0
   31.2630   20.4540   25.2380 O   0  0  0  0  0  0  0  0  0  0  0  0
   32.2910   20.8210   27.4180 C   0  0  0  0  0  0  0  0  0  0  0  0
   33.3950   21.4610   28.0930 O   0  0  0  0  0  0  0  0  0  0  0  0
   32.2670   19.3730   27.9320 C   0  0  0  0  0  0  0  0  0  0  0  0
   33.3510   18.6570   27.3190 O   0  0  0  0  0  0  0  0  0  0  0  0
   35.6730   23.6180   28.5520 C   0  0  0  0  0  0  0  0  0  0  0  0
   36.4730   24.2970   29.4740 C   0  0  0  0  0  0  0  0  0  0  0  0
   35.8580   24.9460   30.5550 C   0  0  0  0  0  0  0  0  0  0  0  0
   36.5290   25.5650   31.3790 O   0  0  0  0  0  0  0  0  0  0  0  0
   33.6660   24.2100   29.8140 C   0  0  0  0  0  0  0  0  0  0  0  0
   32.4430   24.1690   29.9560 O   0  0  0  0  0  0  0  0  0  0  0  0
  2  1  1  0
  3  1  1  0
 11  1  1  0
 14  2  1  0
 18  2  1  0
  5  3  1  0
  6  3  1  0
 16  4  1  0
 18  4  1  0
  7  6  1  0
  8  6  1  0
  9  8  1  0
 10  8  1  0
 11 10  1  0
 12 10  1  0
 13 12  1  0
 15 14  2  0
 16 15  1  0
 17 16  2  0
 19 18  2  0
A    1
C1
A    2
N1
A    3
C2
A    4
N2
A    5
O2
A    6
C3
A    7
F3
A    8
C4
A    9
O4
A   10
C5
A   11
O5
A   12
C6
A   13
O6
A   14
C7
A   15
C8
A   16
C9
A   17
O9
A   18
C10
A   19
O10
M  END
>  <Id>  (103) 
3L79_DKX_A_843

>  <ChainId>  (103) 
A

>  <AsymId>  (103) 
B

>  <SeqNum>  (103) 
843

>  <Name>  (103) 
1-(3-deoxy-3-fluoro-beta-D-glucopyranosyl)pyrimidine-2,4(1H,3H)-dione

>  <SystematicName>  (103) 
1-[(2R,3S,4S,5R,6R)-4-fluoro-3,5-dihydroxy-6-(hydroxymethyl)oxan-2-yl]pyrimidine-2,4-dione

>  <Synonyms>  (103) 


>  <Type>  (103) 
NON-POLYMER

>  <Formula>  (103) 
C10 H13 F N2 O6

>  <ObservedFormula>  (103) 
C10 F N2 O6

>  <MolecularWeight>  (103) 
276.218

>  <ModifiedDate>  (103) 
2011-06-04

>  <Parent>  (103) 


>  <OneLetterCode>  (103) 


>  <SubcomponentList>  (103) 


>  <AmbiguousFlag>  (103) 
N

>  <InsertionCode>  (103) 


>  <InstanceId>  (103) 
3L79_DKX_A_843

>  <ChemCompId>  (103) 
DKX

>  <PdbId>  (103) 
3L79

>  <ResidueNumber>  (103) 
843

>  <InChI>  (103) 
InChI=1S/C10H13FN2O6/c11-6-7(16)4(3-14)19-9(8(6)17)13-2-1-5(15)12-10(13)18/h1-2,4,6-9,14,16-17H,3H2,(H,12,15,18)/t4-,6+,7-,8-,9-/m1/s1

>  <InChIKey>  (103) 
QGWLQEMDCINRKW-PMPOVCSBSA-N

>  <SMILES>  (103) 
C1=CN(C(=O)NC1=O)[C@H]2[C@@H]([C@H]([C@@H]([C@H](O2)CO)O)F)O

>  <MissingHeavyAtoms>  (103) 
0

>  <Model>  (103) 
1

>  <AltIds>  (103) 


>  <pKI>  (103) 
2.46

>  <ChemblID>  (103) 
-

>  <standardized_canonical_smiles>  (103) 
O=c1ccn([C@@H]2O[C@H](CO)[C@@H](O)[C@H](F)[C@H]2O)c(=O)[nH]1

$$$$
1UZU_INR_A_1000
     RDKit          3D

 24 27  0  0  0  0  0  0  0  0999 V2000
   38.3850   35.9040   29.5630 C   0  0  0  0  0  0  0  0  0  0  0  0
   39.3310   36.9690   29.6460 C   0  0  0  0  0  0  0  0  0  0  0  0
   38.1100   35.2970   28.3030 C   0  0  0  0  0  0  0  0  0  0  0  0
   37.8410   35.5920   30.7680 N   0  0  0  0  0  0  0  0  0  0  0  0
   40.0610   37.5080   28.5310 C   0  0  0  0  0  0  0  0  0  0  0  0
   39.2990   37.2800   31.0840 C   0  0  0  0  0  0  0  0  0  0  0  0
   39.7710   36.8830   27.2650 C   0  0  0  0  0  0  0  0  0  0  0  0
   38.8200   35.8100   27.1760 C   0  0  0  0  0  0  0  0  0  0  0  0
   39.9560   38.1360   31.6260 O   0  0  0  0  0  0  0  0  0  0  0  0
   38.3090   36.3430   31.7410 C   0  0  0  0  0  0  0  0  0  0  0  0
   37.9370   36.2500   33.0620 C   0  0  0  0  0  0  0  0  0  0  0  0
   36.8920   35.2170   33.5720 C   0  0  0  0  0  0  0  0  0  0  0  0
   38.3180   36.9730   34.3230 C   0  0  0  0  0  0  0  0  0  0  0  0
   36.3770   34.4490   32.7460 O   0  0  0  0  0  0  0  0  0  0  0  0
   36.7690   35.3870   34.8440 N   0  0  0  0  0  0  0  0  0  0  0  0
   37.5390   36.3620   35.3580 C   0  0  0  0  0  0  0  0  0  0  0  0
   39.2090   38.0390   34.6580 C   0  0  0  0  0  0  0  0  0  0  0  0
   39.3060   38.4750   36.0230 C   0  0  0  0  0  0  0  0  0  0  0  0
   38.5350   37.8790   37.0920 C   0  0  0  0  0  0  0  0  0  0  0  0
   40.4790   39.8350   36.2920 S   0  0  0  0  0  0  0  0  0  0  0  0
   37.6410   36.7990   36.7130 C   0  0  0  0  0  0  0  0  0  0  0  0
   40.2010   40.4900   37.6340 O   0  0  0  0  0  0  0  0  0  0  0  0
   40.3070   40.8330   35.2290 O   0  0  0  0  0  0  0  0  0  0  0  0
   41.8440   39.3210   36.2690 O   0  0  0  0  0  0  0  0  0  0  0  0
  2  1  1  0
  3  1  2  0
  4  1  1  0
  5  2  2  0
  6  2  1  0
  8  3  1  0
 10  4  1  0
  7  5  1  0
  9  6  2  0
 10  6  1  0
  8  7  2  0
 11 10  2  0
 12 11  1  0
 13 11  1  0
 14 12  2  0
 15 12  1  0
 16 13  2  0
 17 13  1  0
 16 15  1  0
 21 16  1  0
 18 17  2  0
 19 18  1  0
 20 18  1  0
 21 19  2  0
 22 20  1  0
 23 20  2  0
 24 20  2  0
A    1
C1
A    2
C2
A    3
C6
A    4
N7
A    5
C3
A    6
C8
A    7
C4
A    8
C5
A    9
O10
A   10
C9
A   11
C11
A   12
C12
A   13
C15
A   14
O13
A   15
N14
A   16
C16
A   17
C20
A   18
C19
A   19
C18
A   20
S21
A   21
C17
A   22
O24
A   23
O23
A   24
O22
M  END
>  <Id>  (104) 
1UZU_INR_A_1000

>  <ChainId>  (104) 
A

>  <AsymId>  (104) 
C

>  <SeqNum>  (104) 
1000

>  <Name>  (104) 
2',3-DIOXO-1,1',2',3-TETRAHYDRO-2,3'-BIINDOLE-5'-SULFONIC ACID

>  <SystematicName>  (104) 
(3Z)-2-oxo-3-(3-oxo-1H-indol-2-ylidene)-1H-indole-5-sulfonic acid

>  <Synonyms>  (104) 
INDIRUBIN-5-SULPHONATE

>  <Type>  (104) 
NON-POLYMER

>  <Formula>  (104) 
C16 H10 N2 O5 S

>  <ObservedFormula>  (104) 
C16 S N2 O5

>  <MolecularWeight>  (104) 
342.326

>  <ModifiedDate>  (104) 
2011-06-04

>  <Parent>  (104) 


>  <OneLetterCode>  (104) 


>  <SubcomponentList>  (104) 


>  <AmbiguousFlag>  (104) 
N

>  <InsertionCode>  (104) 


>  <InstanceId>  (104) 
1UZU_INR_A_1000

>  <ChemCompId>  (104) 
INR

>  <PdbId>  (104) 
1UZU

>  <ResidueNumber>  (104) 
1000

>  <InChI>  (104) 
InChI=1S/C16H10N2O5S/c19-15-9-3-1-2-4-11(9)17-14(15)13-10-7-8(24(21,22)23)5-6-12(10)18-16(13)20/h1-7,17H,(H,18,20)(H,21,22,23)/b14-13-

>  <InChIKey>  (104) 
IHBOEHLUIBMBMY-YPKPFQOOSA-N

>  <SMILES>  (104) 
c1ccc2c(c1)C(=O)/C(=C/3\c4cc(ccc4NC3=O)S(=O)(=O)O)/N2

>  <MissingHeavyAtoms>  (104) 
0

>  <Model>  (104) 
1

>  <AltIds>  (104) 


>  <pKI>  (104) 
4.86

>  <ChemblID>  (104) 
-

>  <standardized_canonical_smiles>  (104) 
O=C1Nc2ccc(S(=O)(=O)O)cc2/C1=C1/Nc2ccccc2C1=O

$$$$
3L7C_DK4_A_843
     RDKit          3D

 20 21  0  0  0  0  0  0  0  0999 V2000
   33.3430   22.9030   27.7890 C   0  0  0  0  0  0  0  0  0  0  0  0
   34.1780   23.5970   28.7930 N   0  0  0  0  0  0  0  0  0  0  0  0
   33.7820   23.1050   26.3240 C   0  0  0  0  0  0  0  0  0  0  0  0
   34.3500   24.9300   30.8100 N   0  0  0  0  0  0  0  0  0  0  0  0
   33.8490   24.5030   26.0120 O   0  0  0  0  0  0  0  0  0  0  0  0
   32.8160   22.3780   25.3640 C   0  0  0  0  0  0  0  0  0  0  0  0
   33.3240   22.3630   24.0780 F   0  0  0  0  0  0  0  0  0  0  0  0
   32.4890   20.9500   25.8580 C   0  0  0  0  0  0  0  0  0  0  0  0
   31.2910   20.4920   25.2390 O   0  0  0  0  0  0  0  0  0  0  0  0
   32.3120   20.8650   27.3990 C   0  0  0  0  0  0  0  0  0  0  0  0
   33.4040   21.5030   28.0840 O   0  0  0  0  0  0  0  0  0  0  0  0
   32.2650   19.4230   27.8750 C   0  0  0  0  0  0  0  0  0  0  0  0
   33.3550   18.7210   27.2680 O   0  0  0  0  0  0  0  0  0  0  0  0
   35.5820   23.5700   28.6990 C   0  0  0  0  0  0  0  0  0  0  0  0
   36.3570   24.2230   29.6550 C   0  0  0  0  0  0  0  0  0  0  0  0
   37.6930   24.1890   29.5400 F   0  0  0  0  0  0  0  0  0  0  0  0
   35.7440   24.9090   30.7110 C   0  0  0  0  0  0  0  0  0  0  0  0
   36.4070   25.4970   31.5670 O   0  0  0  0  0  0  0  0  0  0  0  0
   33.5580   24.2730   29.8580 C   0  0  0  0  0  0  0  0  0  0  0  0
   32.3330   24.3060   29.9580 O   0  0  0  0  0  0  0  0  0  0  0  0
  2  1  1  0
  3  1  1  0
 11  1  1  0
 14  2  1  0
 19  2  1  0
  5  3  1  0
  6  3  1  0
 17  4  1  0
 19  4  1  0
  7  6  1  0
  8  6  1  0
  9  8  1  0
 10  8  1  0
 11 10  1  0
 12 10  1  0
 13 12  1  0
 15 14  2  0
 16 15  1  0
 17 15  1  0
 18 17  2  0
 20 19  2  0
A    1
C1
A    2
N1
A    3
C2
A    4
N2
A    5
O2
A    6
C3
A    7
F3
A    8
C4
A    9
O4
A   10
C5
A   11
O5
A   12
C6
A   13
O6
A   14
C7
A   15
C8
A   16
F8
A   17
C9
A   18
O9
A   19
C10
A   20
O10
M  END
>  <Id>  (105) 
3L7C_DK4_A_843

>  <ChainId>  (105) 
A

>  <AsymId>  (105) 
B

>  <SeqNum>  (105) 
843

>  <Name>  (105) 
1-(3-deoxy-3-fluoro-beta-D-glucopyranosyl)-5-fluoropyrimidine-2,4(1H,3H)-dione

>  <SystematicName>  (105) 
5-fluoro-1-[(2R,3S,4S,5R,6R)-4-fluoro-3,5-dihydroxy-6-(hydroxymethyl)oxan-2-yl]pyrimidine-2,4-dione

>  <Synonyms>  (105) 


>  <Type>  (105) 
NON-POLYMER

>  <Formula>  (105) 
C10 H12 F2 N2 O6

>  <ObservedFormula>  (105) 
C10 F2 N2 O6

>  <MolecularWeight>  (105) 
294.209

>  <ModifiedDate>  (105) 
2011-06-04

>  <Parent>  (105) 


>  <OneLetterCode>  (105) 


>  <SubcomponentList>  (105) 


>  <AmbiguousFlag>  (105) 
N

>  <InsertionCode>  (105) 


>  <InstanceId>  (105) 
3L7C_DK4_A_843

>  <ChemCompId>  (105) 
DK4

>  <PdbId>  (105) 
3L7C

>  <ResidueNumber>  (105) 
843

>  <InChI>  (105) 
InChI=1S/C10H12F2N2O6/c11-3-1-14(10(19)13-8(3)18)9-7(17)5(12)6(16)4(2-15)20-9/h1,4-7,9,15-17H,2H2,(H,13,18,19)/t4-,5+,6-,7-,9-/m1/s1

>  <InChIKey>  (105) 
BXHWKGLMPCAUQA-XLKNOJSPSA-N

>  <SMILES>  (105) 
C1=C(C(=O)NC(=O)N1[C@H]2[C@@H]([C@H]([C@@H]([C@H](O2)CO)O)F)O)F

>  <MissingHeavyAtoms>  (105) 
0

>  <Model>  (105) 
1

>  <AltIds>  (105) 


>  <pKI>  (105) 
2.44

>  <ChemblID>  (105) 
-

>  <standardized_canonical_smiles>  (105) 
O=c1[nH]c(=O)n([C@@H]2O[C@H](CO)[C@@H](O)[C@H](F)[C@H]2O)cc1F

$$$$
3T3G_GPU_A_843
     RDKit          3D

 20 21  0  0  0  0  0  0  0  0999 V2000
   34.0340   23.5280   28.9300 N   0  0  0  0  0  0  0  0  0  0  0  0
   38.0860   23.9480   29.9230 Br  0  0  0  0  0  0  0  0  0  0  0  0
   33.3570   24.3680   29.8510 C   0  0  0  0  0  0  0  0  0  0  0  0
   32.1300   24.4920   29.8320 O   0  0  0  0  0  0  0  0  0  0  0  0
   34.1310   25.1020   30.8030 N   0  0  0  0  0  0  0  0  0  0  0  0
   35.5310   24.9760   30.8270 C   0  0  0  0  0  0  0  0  0  0  0  0
   36.1480   25.6520   31.6370 O   0  0  0  0  0  0  0  0  0  0  0  0
   36.1830   24.1420   29.9100 C   0  0  0  0  0  0  0  0  0  0  0  0
   35.4410   23.4270   28.9630 C   0  0  0  0  0  0  0  0  0  0  0  0
   33.2410   22.7710   27.9410 C   0  0  0  0  0  0  0  0  0  0  0  0
   33.6860   23.1110   26.5190 C   0  0  0  0  0  0  0  0  0  0  0  0
   33.8200   24.5510   26.3780 O   0  0  0  0  0  0  0  0  0  0  0  0
   32.6670   22.4490   25.5770 C   0  0  0  0  0  0  0  0  0  0  0  0
   33.1710   22.4480   24.2510 O   0  0  0  0  0  0  0  0  0  0  0  0
   32.3800   20.9790   25.9870 C   0  0  0  0  0  0  0  0  0  0  0  0
   31.2850   20.4980   25.2420 O   0  0  0  0  0  0  0  0  0  0  0  0
   32.1340   20.7860   27.4910 C   0  0  0  0  0  0  0  0  0  0  0  0
   33.3270   21.3250   28.0360 O   0  0  0  0  0  0  0  0  0  0  0  0
   32.1720   19.3620   28.0130 C   0  0  0  0  0  0  0  0  0  0  0  0
   33.3050   18.6850   27.4530 O   0  0  0  0  0  0  0  0  0  0  0  0
  3  1  1  0
  9  1  1  0
 10  1  1  0
  8  2  1  0
  4  3  2  0
  5  3  1  0
  6  5  1  0
  7  6  2  0
  8  6  1  0
  9  8  2  0
 11 10  1  0
 18 10  1  0
 12 11  1  0
 13 11  1  0
 14 13  1  0
 15 13  1  0
 16 15  1  0
 17 15  1  0
 18 17  1  0
 19 17  1  0
 20 19  1  0
A    1
N1
A    2
BR1
A    3
C2
A    4
O2
A    5
N3
A    6
C4
A    7
O4
A    8
C5
A    9
C6
A   10
C1'
A   11
C2'
A   12
O2'
A   13
C3'
A   14
O3'
A   15
C4'
A   16
O4'
A   17
C5'
A   18
O5'
A   19
C6'
A   20
O6'
M  END
>  <Id>  (106) 
3T3G_GPU_A_843

>  <ChainId>  (106) 
A

>  <AsymId>  (106) 
B

>  <SeqNum>  (106) 
843

>  <Name>  (106) 
5-bromo-1-(beta-D-glucopyranosyl)pyrimidine-2,4(1H,3H)-dione

>  <SystematicName>  (106) 
5-bromanyl-1-[(2R,3R,4S,5S,6R)-6-(hydroxymethyl)-3,4,5-tris(oxidanyl)oxan-2-yl]pyrimidine-2,4-dione

>  <Synonyms>  (106) 


>  <Type>  (106) 
NON-POLYMER

>  <Formula>  (106) 
C10 H13 Br N2 O7

>  <ObservedFormula>  (106) 
Br C10 N2 O7

>  <MolecularWeight>  (106) 
353.123

>  <ModifiedDate>  (106) 
2012-02-10

>  <Parent>  (106) 


>  <OneLetterCode>  (106) 


>  <SubcomponentList>  (106) 


>  <AmbiguousFlag>  (106) 
N

>  <InsertionCode>  (106) 


>  <InstanceId>  (106) 
3T3G_GPU_A_843

>  <ChemCompId>  (106) 
GPU

>  <PdbId>  (106) 
3T3G

>  <ResidueNumber>  (106) 
843

>  <InChI>  (106) 
InChI=1S/C10H13BrN2O7/c11-3-1-13(10(19)12-8(3)18)9-7(17)6(16)5(15)4(2-14)20-9/h1,4-7,9,14-17H,2H2,(H,12,18,19)/t4-,5-,6+,7-,9-/m1/s1

>  <InChIKey>  (106) 
QNNGZNNVDUDIOK-XSEHCYKFSA-N

>  <SMILES>  (106) 
C1=C(C(=O)NC(=O)N1[C@H]2[C@@H]([C@H]([C@@H]([C@H](O2)CO)O)O)O)Br

>  <MissingHeavyAtoms>  (106) 
0

>  <Model>  (106) 
1

>  <AltIds>  (106) 


>  <pKI>  (106) 
5.49

>  <ChemblID>  (106) 
-

>  <standardized_canonical_smiles>  (106) 
O=c1[nH]c(=O)n([C@@H]2O[C@H](CO)[C@@H](O)[C@H](O)[C@H]2O)cc1Br

$$$$
3T3I_GPW_A_843
     RDKit          3D

 23 24  0  0  0  0  0  0  0  0999 V2000
   38.4630   25.0800   29.9080 F   0  0  0  0  0  0  0  0  0  0  0  0
   34.1360   23.5760   29.0840 N   0  0  0  0  0  0  0  0  0  0  0  0
   33.4320   24.4210   29.9760 C   0  0  0  0  0  0  0  0  0  0  0  0
   38.0880   23.6760   31.4960 F   0  0  0  0  0  0  0  0  0  0  0  0
   32.2030   24.5150   29.8800 O   0  0  0  0  0  0  0  0  0  0  0  0
   38.1470   22.9950   29.5230 F   0  0  0  0  0  0  0  0  0  0  0  0
   34.1260   25.1690   30.9520 N   0  0  0  0  0  0  0  0  0  0  0  0
   35.5350   25.0470   31.0260 C   0  0  0  0  0  0  0  0  0  0  0  0
   36.1460   25.6910   31.8730 O   0  0  0  0  0  0  0  0  0  0  0  0
   36.2370   24.2020   30.1390 C   0  0  0  0  0  0  0  0  0  0  0  0
   35.5320   23.4710   29.1690 C   0  0  0  0  0  0  0  0  0  0  0  0
   37.7740   24.0210   30.2480 C   0  0  0  0  0  0  0  0  0  0  0  0
   33.3590   22.8260   28.0450 C   0  0  0  0  0  0  0  0  0  0  0  0
   33.8120   23.0720   26.5670 C   0  0  0  0  0  0  0  0  0  0  0  0
   34.0130   24.4840   26.3240 O   0  0  0  0  0  0  0  0  0  0  0  0
   32.7760   22.4310   25.5950 C   0  0  0  0  0  0  0  0  0  0  0  0
   33.1630   22.5040   24.2090 O   0  0  0  0  0  0  0  0  0  0  0  0
   32.5270   20.9550   25.9730 C   0  0  0  0  0  0  0  0  0  0  0  0
   31.3750   20.4920   25.2400 O   0  0  0  0  0  0  0  0  0  0  0  0
   32.3290   20.7520   27.5130 C   0  0  0  0  0  0  0  0  0  0  0  0
   33.3170   21.4150   28.3100 O   0  0  0  0  0  0  0  0  0  0  0  0
   32.4490   19.3460   28.0630 C   0  0  0  0  0  0  0  0  0  0  0  0
   33.0860   18.4500   27.1620 O   0  0  0  0  0  0  0  0  0  0  0  0
 12  1  1  0
  3  2  1  0
 11  2  1  0
 13  2  1  0
  5  3  2  0
  7  3  1  0
 12  4  1  0
 12  6  1  0
  8  7  1  0
  9  8  2  0
 10  8  1  0
 11 10  2  0
 12 10  1  0
 14 13  1  0
 21 13  1  0
 15 14  1  0
 16 14  1  0
 17 16  1  0
 18 16  1  0
 19 18  1  0
 20 18  1  0
 21 20  1  0
 22 20  1  0
 23 22  1  0
A    1
F1
A    2
N1
A    3
C2
A    4
F2
A    5
O2
A    6
F3
A    7
N3
A    8
C4
A    9
O4
A   10
C5
A   11
C6
A   12
C7
A   13
C1'
A   14
C2'
A   15
O2'
A   16
C3'
A   17
O3'
A   18
C4'
A   19
O4'
A   20
C5'
A   21
O5'
A   22
C6'
A   23
O6'
M  END
>  <Id>  (107) 
3T3I_GPW_A_843

>  <ChainId>  (107) 
A

>  <AsymId>  (107) 
B

>  <SeqNum>  (107) 
843

>  <Name>  (107) 
1-(beta-D-glucopyranosyl)-5-(trifluoromethyl)pyrimidine-2,4(1H,3H)-dione

>  <SystematicName>  (107) 
1-[(2R,3R,4S,5S,6R)-6-(hydroxymethyl)-3,4,5-tris(oxidanyl)oxan-2-yl]-5-(trifluoromethyl)pyrimidine-2,4-dione

>  <Synonyms>  (107) 


>  <Type>  (107) 
NON-POLYMER

>  <Formula>  (107) 
C11 H13 F3 N2 O7

>  <ObservedFormula>  (107) 
C11 F3 N2 O7

>  <MolecularWeight>  (107) 
342.225

>  <ModifiedDate>  (107) 
2012-02-10

>  <Parent>  (107) 


>  <OneLetterCode>  (107) 


>  <SubcomponentList>  (107) 


>  <AmbiguousFlag>  (107) 
N

>  <InsertionCode>  (107) 


>  <InstanceId>  (107) 
3T3I_GPW_A_843

>  <ChemCompId>  (107) 
GPW

>  <PdbId>  (107) 
3T3I

>  <ResidueNumber>  (107) 
843

>  <InChI>  (107) 
InChI=1S/C11H13F3N2O7/c12-11(13,14)3-1-16(10(22)15-8(3)21)9-7(20)6(19)5(18)4(2-17)23-9/h1,4-7,9,17-20H,2H2,(H,15,21,22)/t4-,5-,6+,7-,9-/m1/s1

>  <InChIKey>  (107) 
NADUQTKHANBUDE-XSEHCYKFSA-N

>  <SMILES>  (107) 
C1=C(C(=O)NC(=O)N1[C@H]2[C@@H]([C@H]([C@@H]([C@H](O2)CO)O)O)O)C(F)(F)F

>  <MissingHeavyAtoms>  (107) 
0

>  <Model>  (107) 
1

>  <AltIds>  (107) 


>  <pKI>  (107) 
4.77

>  <ChemblID>  (107) 
-

>  <standardized_canonical_smiles>  (107) 
O=c1[nH]c(=O)n([C@@H]2O[C@H](CO)[C@@H](O)[C@H](O)[C@H]2O)cc1C(F)(F)F

$$$$
3SYR_GPK_A_843
     RDKit          3D

 20 21  0  0  0  0  0  0  0  0999 V2000
   35.5030   23.4910   28.5950 C   0  0  0  0  0  0  0  0  0  0  0  0
   37.6100   24.1550   29.4110 F   0  0  0  0  0  0  0  0  0  0  0  0
   36.2750   24.1810   29.5180 C   0  0  0  0  0  0  0  0  0  0  0  0
   35.6490   24.9040   30.5350 C   0  0  0  0  0  0  0  0  0  0  0  0
   36.3470   25.5430   31.3440 O   0  0  0  0  0  0  0  0  0  0  0  0
   34.2980   24.9350   30.6350 N   0  0  0  0  0  0  0  0  0  0  0  0
   33.5120   24.2650   29.7580 C   0  0  0  0  0  0  0  0  0  0  0  0
   32.2620   24.2540   29.8740 O   0  0  0  0  0  0  0  0  0  0  0  0
   33.2270   22.7960   27.7450 C   0  0  0  0  0  0  0  0  0  0  0  0
   34.0990   23.4540   28.7710 N   0  0  0  0  0  0  0  0  0  0  0  0
   33.6570   23.0400   26.2930 C   0  0  0  0  0  0  0  0  0  0  0  0
   33.7600   24.4490   26.0450 O   0  0  0  0  0  0  0  0  0  0  0  0
   32.6130   22.3810   25.3760 C   0  0  0  0  0  0  0  0  0  0  0  0
   33.0220   22.4500   24.0240 O   0  0  0  0  0  0  0  0  0  0  0  0
   32.3640   20.9290   25.7600 C   0  0  0  0  0  0  0  0  0  0  0  0
   31.2550   20.4570   24.9760 O   0  0  0  0  0  0  0  0  0  0  0  0
   32.1130   20.7600   27.2720 C   0  0  0  0  0  0  0  0  0  0  0  0
   33.1680   21.3780   27.9980 O   0  0  0  0  0  0  0  0  0  0  0  0
   32.0850   19.3070   27.7680 C   0  0  0  0  0  0  0  0  0  0  0  0
   33.1750   18.5510   27.2120 O   0  0  0  0  0  0  0  0  0  0  0  0
  3  1  2  0
 10  1  1  0
  3  2  1  0
  4  3  1  0
  5  4  2  0
  6  4  1  0
  7  6  1  0
  8  7  2  0
 10  7  1  0
 10  9  1  0
 11  9  1  0
 18  9  1  0
 12 11  1  0
 13 11  1  0
 14 13  1  0
 15 13  1  0
 16 15  1  0
 17 15  1  0
 18 17  1  0
 19 17  1  0
 20 19  1  0
A    1
C1
A    2
F1
A    3
C2
A    4
C3
A    5
O3
A    6
N4
A    7
C5
A    8
O5
A    9
C1'
A   10
N1'
A   11
C2'
A   12
O2'
A   13
C3'
A   14
O3'
A   15
C4'
A   16
O4'
A   17
C5'
A   18
O5'
A   19
C6'
A   20
O6'
M  END
>  <Id>  (108) 
3SYR_GPK_A_843

>  <ChainId>  (108) 
A

>  <AsymId>  (108) 
B

>  <SeqNum>  (108) 
843

>  <Name>  (108) 
5-fluoro-1-(beta-D-glucopyranosyl)pyrimidine-2,4(1H,3H)-dione

>  <SystematicName>  (108) 
5-fluoranyl-1-[(2R,3R,4S,5S,6R)-6-(hydroxymethyl)-3,4,5-tris(oxidanyl)oxan-2-yl]pyrimidine-2,4-dione

>  <Synonyms>  (108) 


>  <Type>  (108) 
NON-POLYMER

>  <Formula>  (108) 
C10 H13 F N2 O7

>  <ObservedFormula>  (108) 
C10 F N2 O7

>  <MolecularWeight>  (108) 
292.218

>  <ModifiedDate>  (108) 
2012-02-10

>  <Parent>  (108) 


>  <OneLetterCode>  (108) 


>  <SubcomponentList>  (108) 


>  <AmbiguousFlag>  (108) 
N

>  <InsertionCode>  (108) 


>  <InstanceId>  (108) 
3SYR_GPK_A_843

>  <ChemCompId>  (108) 
GPK

>  <PdbId>  (108) 
3SYR

>  <ResidueNumber>  (108) 
843

>  <InChI>  (108) 
InChI=1S/C10H13FN2O7/c11-3-1-13(10(19)12-8(3)18)9-7(17)6(16)5(15)4(2-14)20-9/h1,4-7,9,14-17H,2H2,(H,12,18,19)/t4-,5-,6+,7-,9-/m1/s1

>  <InChIKey>  (108) 
YHWGRVDTEORPPJ-XSEHCYKFSA-N

>  <SMILES>  (108) 
C1=C(C(=O)NC(=O)N1[C@H]2[C@@H]([C@H]([C@@H]([C@H](O2)CO)O)O)O)F

>  <MissingHeavyAtoms>  (108) 
0

>  <Model>  (108) 
1

>  <AltIds>  (108) 


>  <pKI>  (108) 
5.1

>  <ChemblID>  (108) 
-

>  <standardized_canonical_smiles>  (108) 
O=c1[nH]c(=O)n([C@@H]2O[C@H](CO)[C@@H](O)[C@H](O)[C@H]2O)cc1F

$$$$
3T3H_GPV_A_843
     RDKit          3D

 20 21  0  0  0  0  0  0  0  0999 V2000
   38.1540   23.5600   30.1550 I   0  0  0  0  0  0  0  0  0  0  0  0
   33.9570   23.4420   28.9090 N   0  0  0  0  0  0  0  0  0  0  0  0
   33.2990   24.3500   29.7320 C   0  0  0  0  0  0  0  0  0  0  0  0
   32.0870   24.5350   29.6100 O   0  0  0  0  0  0  0  0  0  0  0  0
   34.0290   25.0860   30.6810 N   0  0  0  0  0  0  0  0  0  0  0  0
   35.4100   24.8850   30.8160 C   0  0  0  0  0  0  0  0  0  0  0  0
   36.0100   25.5320   31.6600 O   0  0  0  0  0  0  0  0  0  0  0  0
   36.0700   23.9760   29.9920 C   0  0  0  0  0  0  0  0  0  0  0  0
   35.3230   23.2640   29.0430 C   0  0  0  0  0  0  0  0  0  0  0  0
   33.1890   22.7020   27.8670 C   0  0  0  0  0  0  0  0  0  0  0  0
   33.6510   23.0250   26.4160 C   0  0  0  0  0  0  0  0  0  0  0  0
   33.6920   24.4600   26.1840 O   0  0  0  0  0  0  0  0  0  0  0  0
   32.6460   22.3380   25.4780 C   0  0  0  0  0  0  0  0  0  0  0  0
   32.9630   22.4940   24.1160 O   0  0  0  0  0  0  0  0  0  0  0  0
   32.3990   20.8900   25.8260 C   0  0  0  0  0  0  0  0  0  0  0  0
   31.2280   20.5070   25.1000 O   0  0  0  0  0  0  0  0  0  0  0  0
   32.1260   20.7190   27.3290 C   0  0  0  0  0  0  0  0  0  0  0  0
   33.2280   21.2730   27.9590 O   0  0  0  0  0  0  0  0  0  0  0  0
   32.1550   19.2830   27.9090 C   0  0  0  0  0  0  0  0  0  0  0  0
   33.0890   18.4730   27.2030 O   0  0  0  0  0  0  0  0  0  0  0  0
  8  1  1  0
  3  2  1  0
  9  2  1  0
 10  2  1  0
  4  3  2  0
  5  3  1  0
  6  5  1  0
  7  6  2  0
  8  6  1  0
  9  8  2  0
 11 10  1  0
 18 10  1  0
 12 11  1  0
 13 11  1  0
 14 13  1  0
 15 13  1  0
 16 15  1  0
 17 15  1  0
 18 17  1  0
 19 17  1  0
 20 19  1  0
A    1
I
A    2
N1
A    3
C2
A    4
O2
A    5
N3
A    6
C4
A    7
O4
A    8
C5
A    9
C6
A   10
C1'
A   11
C2'
A   12
O2'
A   13
C3'
A   14
O3'
A   15
C4'
A   16
O4'
A   17
C5'
A   18
O5'
A   19
C6'
A   20
O6'
M  END
>  <Id>  (109) 
3T3H_GPV_A_843

>  <ChainId>  (109) 
A

>  <AsymId>  (109) 
B

>  <SeqNum>  (109) 
843

>  <Name>  (109) 
1-(beta-D-glucopyranosyl)-5-iodopyrimidine-2,4(1H,3H)-dione

>  <SystematicName>  (109) 
1-[(2R,3R,4S,5S,6R)-6-(hydroxymethyl)-3,4,5-tris(oxidanyl)oxan-2-yl]-5-iodanyl-pyrimidine-2,4-dione

>  <Synonyms>  (109) 


>  <Type>  (109) 
NON-POLYMER

>  <Formula>  (109) 
C10 H13 I N2 O7

>  <ObservedFormula>  (109) 
C10 I N2 O7

>  <MolecularWeight>  (109) 
400.124

>  <ModifiedDate>  (109) 
2012-02-10

>  <Parent>  (109) 


>  <OneLetterCode>  (109) 


>  <SubcomponentList>  (109) 


>  <AmbiguousFlag>  (109) 
N

>  <InsertionCode>  (109) 


>  <InstanceId>  (109) 
3T3H_GPV_A_843

>  <ChemCompId>  (109) 
GPV

>  <PdbId>  (109) 
3T3H

>  <ResidueNumber>  (109) 
843

>  <InChI>  (109) 
InChI=1S/C10H13IN2O7/c11-3-1-13(10(19)12-8(3)18)9-7(17)6(16)5(15)4(2-14)20-9/h1,4-7,9,14-17H,2H2,(H,12,18,19)/t4-,5-,6+,7-,9-/m1/s1

>  <InChIKey>  (109) 
NKQVRMXGIOZKRJ-XSEHCYKFSA-N

>  <SMILES>  (109) 
C1=C(C(=O)NC(=O)N1[C@H]2[C@@H]([C@H]([C@@H]([C@H](O2)CO)O)O)O)I

>  <MissingHeavyAtoms>  (109) 
0

>  <Model>  (109) 
1

>  <AltIds>  (109) 


>  <pKI>  (109) 
5.71

>  <ChemblID>  (109) 
-

>  <standardized_canonical_smiles>  (109) 
O=c1[nH]c(=O)n([C@@H]2O[C@H](CO)[C@@H](O)[C@H](O)[C@H]2O)cc1I

$$$$
3SYM_GP0_A_843
     RDKit          3D

 22 23  0  0  0  0  0  0  0  0999 V2000
   35.4460   23.6790   28.5790 C   0  0  0  0  0  0  0  0  0  0  0  0
   37.5560   24.4340   29.2400 F   0  0  0  0  0  0  0  0  0  0  0  0
   34.0590   23.5780   28.8140 N   0  0  0  0  0  0  0  0  0  0  0  0
   36.2410   24.3630   29.4830 C   0  0  0  0  0  0  0  0  0  0  0  0
   35.6780   24.9610   30.6270 C   0  0  0  0  0  0  0  0  0  0  0  0
   36.3660   25.5960   31.4320 O   0  0  0  0  0  0  0  0  0  0  0  0
   34.3020   24.8610   30.8630 N   0  0  0  0  0  0  0  0  0  0  0  0
   33.4920   24.1670   29.9630 C   0  0  0  0  0  0  0  0  0  0  0  0
   32.2870   24.0740   30.1940 O   0  0  0  0  0  0  0  0  0  0  0  0
   33.1880   22.8650   27.8630 C   0  0  0  0  0  0  0  0  0  0  0  0
   33.5520   23.1870   26.3850 C   0  0  0  0  0  0  0  0  0  0  0  0
   33.7100   24.5930   26.1930 O   0  0  0  0  0  0  0  0  0  0  0  0
   32.4960   22.5890   25.4140 C   0  0  0  0  0  0  0  0  0  0  0  0
   32.9720   22.5240   24.0760 O   0  0  0  0  0  0  0  0  0  0  0  0
   32.2110   21.1210   25.8210 C   0  0  0  0  0  0  0  0  0  0  0  0
   31.0840   20.6420   25.0890 O   0  0  0  0  0  0  0  0  0  0  0  0
   32.0420   20.8900   27.3480 C   0  0  0  0  0  0  0  0  0  0  0  0
   33.1610   21.4250   28.0870 O   0  0  0  0  0  0  0  0  0  0  0  0
   32.0070   19.4220   27.7640 C   0  0  0  0  0  0  0  0  0  0  0  0
   33.1240   18.7230   27.2370 O   0  0  0  0  0  0  0  0  0  0  0  0
   31.2510   23.5010   25.4080 C   0  0  0  0  0  0  0  0  0  0  0  0
   30.5590   23.7770   26.6240 O   0  0  0  0  0  0  0  0  0  0  0  0
  3  1  1  0
  4  1  2  0
  4  2  1  0
  8  3  1  0
 10  3  1  0
  5  4  1  0
  6  5  2  0
  7  5  1  0
  8  7  1  0
  9  8  2  0
 11 10  1  0
 18 10  1  0
 12 11  1  0
 13 11  1  0
 14 13  1  0
 15 13  1  0
 21 13  1  0
 16 15  1  0
 17 15  1  0
 18 17  1  0
 19 17  1  0
 20 19  1  0
 22 21  1  0
A    1
C1
A    2
F1
A    3
N1
A    4
C2
A    5
C3
A    6
O3
A    7
N4
A    8
C5
A    9
O5
A   10
C1'
A   11
C2'
A   12
O2'
A   13
C3'
A   14
O3'
A   15
C4'
A   16
O4'
A   17
C5'
A   18
O5'
A   19
C6'
A   20
O6'
A   21
C7'
A   22
O7'
M  END
>  <Id>  (110) 
3SYM_GP0_A_843

>  <ChainId>  (110) 
A

>  <AsymId>  (110) 
B

>  <SeqNum>  (110) 
843

>  <Name>  (110) 
5-fluoro-1-[3-C-(hydroxymethyl)-beta-D-glucopyranosyl]pyrimidine-2,4(1H,3H)-dione

>  <SystematicName>  (110) 
1-[(2R,3R,4S,5R,6R)-4,6-bis(hydroxymethyl)-3,4,5-tris(oxidanyl)oxan-2-yl]-5-fluoranyl-pyrimidine-2,4-dione

>  <Synonyms>  (110) 


>  <Type>  (110) 
NON-POLYMER

>  <Formula>  (110) 
C11 H15 F N2 O8

>  <ObservedFormula>  (110) 
C11 F N2 O8

>  <MolecularWeight>  (110) 
322.244

>  <ModifiedDate>  (110) 
2012-02-10

>  <Parent>  (110) 


>  <OneLetterCode>  (110) 


>  <SubcomponentList>  (110) 


>  <AmbiguousFlag>  (110) 
N

>  <InsertionCode>  (110) 


>  <InstanceId>  (110) 
3SYM_GP0_A_843

>  <ChemCompId>  (110) 
GP0

>  <PdbId>  (110) 
3SYM

>  <ResidueNumber>  (110) 
843

>  <InChI>  (110) 
InChI=1S/C11H15FN2O8/c12-4-1-14(10(20)13-8(4)19)9-7(18)11(21,3-16)6(17)5(2-15)22-9/h1,5-7,9,15-18,21H,2-3H2,(H,13,19,20)/t5-,6-,7+,9-,11+/m1/s1

>  <InChIKey>  (110) 
ASRLDHHNHXDEKP-RZBPYSQRSA-N

>  <SMILES>  (110) 
C1=C(C(=O)NC(=O)N1[C@H]2[C@@H]([C@@]([C@@H]([C@H](O2)CO)O)(CO)O)O)F

>  <MissingHeavyAtoms>  (110) 
0

>  <Model>  (110) 
1

>  <AltIds>  (110) 


>  <pKI>  (110) 
4.57

>  <ChemblID>  (110) 
-

>  <standardized_canonical_smiles>  (110) 
O=c1[nH]c(=O)n([C@@H]2O[C@H](CO)[C@@H](O)[C@@](O)(CO)[C@H]2O)cc1F

$$$$
4YUA_REF_A_902
     RDKit          3D

 22 25  0  0  0  0  0  0  0  0999 V2000
   38.6690   37.6300   33.5090 C   0  0  0  0  0  0  0  0  0  0  0  0
   37.9950   36.5550   32.7250 C   0  0  0  0  0  0  0  0  0  0  0  0
   38.2430   36.4680   31.2790 C   0  0  0  0  0  0  0  0  0  0  0  0
   39.1530   37.4510   30.6430 C   0  0  0  0  0  0  0  0  0  0  0  0
   39.7590   38.4380   31.3960 O   0  0  0  0  0  0  0  0  0  0  0  0
   39.5660   38.5730   32.7670 C   0  0  0  0  0  0  0  0  0  0  0  0
   37.5810   35.3960   30.4950 C   0  0  0  0  0  0  0  0  0  0  0  0
   37.8220   35.2990   29.1210 C   0  0  0  0  0  0  0  0  0  0  0  0
   38.6640   36.1980   28.4480 C   0  0  0  0  0  0  0  0  0  0  0  0
   39.3640   37.3050   29.1770 C   0  0  0  0  0  0  0  0  0  0  0  0
   37.0890   35.5640   33.3630 C   0  0  0  0  0  0  0  0  0  0  0  0
   36.4770   34.5670   32.6050 O   0  0  0  0  0  0  0  0  0  0  0  0
   36.6810   34.4500   31.2290 C   0  0  0  0  0  0  0  0  0  0  0  0
   38.4590   37.7390   34.8870 C   0  0  0  0  0  0  0  0  0  0  0  0
   37.6200   36.8450   35.5590 C   0  0  0  0  0  0  0  0  0  0  0  0
   36.9140   35.7370   34.8380 C   0  0  0  0  0  0  0  0  0  0  0  0
   40.1850   38.1720   28.5240 O   0  0  0  0  0  0  0  0  0  0  0  0
   38.8380   36.0440   27.1030 O   0  0  0  0  0  0  0  0  0  0  0  0
   36.1230   33.5350   30.5780 O   0  0  0  0  0  0  0  0  0  0  0  0
   36.1170   34.9000   35.5400 O   0  0  0  0  0  0  0  0  0  0  0  0
   37.4410   36.9900   36.9020 O   0  0  0  0  0  0  0  0  0  0  0  0
   40.1460   39.4900   33.3950 O   0  0  0  0  0  0  0  0  0  0  0  0
  2  1  2  0
  6  1  1  0
 14  1  1  0
  3  2  1  0
 11  2  1  0
  4  3  2  0
  7  3  1  0
  5  4  1  0
 10  4  1  0
  6  5  1  0
 22  6  2  0
  8  7  2  0
 13  7  1  0
  9  8  1  0
 10  9  2  0
 18  9  1  0
 17 10  1  0
 12 11  1  0
 16 11  2  0
 13 12  1  0
 19 13  2  0
 15 14  2  0
 16 15  1  0
 21 15  1  0
 20 16  1  0
A    1
C1
A    2
C2
A    3
C3
A    4
C4
A    5
O5
A    6
C6
A    7
C7
A    8
C8
A    9
C9
A   10
C10
A   11
C11
A   12
O12
A   13
C13
A   14
C14
A   15
C15
A   16
C16
A   17
O19
A   18
O20
A   19
O21
A   20
O22
A   21
O23
A   22
O24
M  END
>  <Id>  (111) 
4YUA_REF_A_902

>  <ChainId>  (111) 
A

>  <AsymId>  (111) 
C

>  <SeqNum>  (111) 
902

>  <Name>  (111) 
2,3,7,8-tetrahydroxychromeno[5,4,3-cde]chromene-5,10-dione

>  <SystematicName>  (111) 
null

>  <Synonyms>  (111) 
Ellagic acid, 4,4',5,5',6,6'-Hexahydroxydiphenic acid 2,6,2',6'-dilactone

>  <Type>  (111) 
NON-POLYMER

>  <Formula>  (111) 
C14 H6 O8

>  <ObservedFormula>  (111) 
C14 O8

>  <MolecularWeight>  (111) 
302.193

>  <ModifiedDate>  (111) 
2011-06-04

>  <Parent>  (111) 


>  <OneLetterCode>  (111) 


>  <SubcomponentList>  (111) 


>  <AmbiguousFlag>  (111) 
N

>  <InsertionCode>  (111) 


>  <InstanceId>  (111) 
4YUA_REF_A_902

>  <ChemCompId>  (111) 
REF

>  <PdbId>  (111) 
4YUA

>  <ResidueNumber>  (111) 
902

>  <InChI>  (111) 
InChI=1S/C14H6O8/c15-5-1-3-7-8-4(14(20)22-11(7)9(5)17)2-6(16)10(18)12(8)21-13(3)19/h1-2,15-18H

>  <InChIKey>  (111) 
AFSDNFLWKVMVRB-UHFFFAOYSA-N

>  <MissingHeavyAtoms>  (111) 
0

>  <Model>  (111) 
1

>  <AltIds>  (111) 


>  <pKI>  (111) 
4.87

>  <ChemblID>  (111) 
-

>  <standardized_canonical_smiles>  (111) 
O=c1oc2c(O)c(O)cc3c(=O)oc4c(O)c(O)cc1c4c23

$$$$
1AXR_HTP_A_998
     RDKit          3D

 14 15  0  0  0  0  0  0  0  0999 V2000
   34.1300   22.4540   27.2440 C   0  0  0  0  0  0  0  0  0  0  0  0
   34.0150   22.8750   25.7920 C   0  0  0  0  0  0  0  0  0  0  0  0
   32.6100   22.4600   25.2760 C   0  0  0  0  0  0  0  0  0  0  0  0
   32.3490   20.9990   25.6100 C   0  0  0  0  0  0  0  0  0  0  0  0
   32.1530   20.8530   27.1400 C   0  0  0  0  0  0  0  0  0  0  0  0
   32.0400   19.4280   27.6180 C   0  0  0  0  0  0  0  0  0  0  0  0
   35.0110   22.8020   28.2190 C   0  0  0  0  0  0  0  0  0  0  0  0
   33.6460   21.2760   29.1170 N   0  0  0  0  0  0  0  0  0  0  0  0
   34.7380   22.1040   29.3320 N   0  0  0  0  0  0  0  0  0  0  0  0
   33.2430   21.4890   27.8060 N   0  0  0  0  0  0  0  0  0  0  0  0
   34.2970   24.2490   25.5610 O   0  0  0  0  0  0  0  0  0  0  0  0
   32.5880   22.6280   23.8830 O   0  0  0  0  0  0  0  0  0  0  0  0
   31.2450   20.4370   24.9220 O   0  0  0  0  0  0  0  0  0  0  0  0
   33.1410   18.7010   27.0730 O   0  0  0  0  0  0  0  0  0  0  0  0
  2  1  1  0
  7  1  1  0
 10  1  2  0
  3  2  1  0
 11  2  1  0
  4  3  1  0
 12  3  1  0
  5  4  1  0
 13  4  1  0
  6  5  1  0
 10  5  1  0
 14  6  1  0
  9  7  2  0
  9  8  1  0
 10  8  1  0
M  CHG  1  10   1
A    1
C1
A    2
C2
A    3
C3
A    4
C4
A    5
C5
A    6
C6
A    7
C7
A    8
N17
A    9
N18
A   10
N1
A   11
O2
A   12
O3
A   13
O4
A   14
O6
M  END
>  <Id>  (112) 
1AXR_HTP_A_998

>  <ChainId>  (112) 
A

>  <AsymId>  (112) 
E

>  <SeqNum>  (112) 
998

>  <Name>  (112) 
4,5,6-TRIHYDROXY-7-HYDROXYMETHYL-4,5,6,7-TETRAHYDRO-1H-[1,2,3]TRIAZOLO[1,5-A]PYRIDIN-8-YLIUM

>  <SystematicName>  (112) 
(4S,5S,6R,7R)-7-(hydroxymethyl)-4,5,6,7-tetrahydro-1H-[1,2,3]triazolo[5,1-f]pyridin-8-ium-4,5,6-triol

>  <Synonyms>  (112) 


>  <Type>  (112) 
NON-POLYMER

>  <Formula>  (112) 
C7 H12 N3 O4

>  <ObservedFormula>  (112) 
C7 N3 O4

>  <MolecularWeight>  (112) 
202.188

>  <ModifiedDate>  (112) 
2011-06-04

>  <Parent>  (112) 


>  <OneLetterCode>  (112) 


>  <SubcomponentList>  (112) 


>  <AmbiguousFlag>  (112) 
N

>  <InsertionCode>  (112) 


>  <InstanceId>  (112) 
1AXR_HTP_A_998

>  <ChemCompId>  (112) 
HTP

>  <PdbId>  (112) 
1AXR

>  <ResidueNumber>  (112) 
998

>  <InChI>  (112) 
InChI=1S/C7H11N3O4/c11-2-4-6(13)7(14)5(12)3-1-8-9-10(3)4/h1,4-7,11-14H,2H2/p+1/t4-,5+,6-,7-/m1/s1

>  <InChIKey>  (112) 
QTNWFPNNMUCBLD-XZBKPIIZSA-O

>  <SMILES>  (112) 
c1c2[n+]([nH]n1)[C@@H]([C@H]([C@@H]([C@H]2O)O)O)CO

>  <MissingHeavyAtoms>  (112) 
0

>  <Model>  (112) 
1

>  <AltIds>  (112) 


>  <pKI>  (112) 
3.27

>  <ChemblID>  (112) 
-

>  <standardized_canonical_smiles>  (112) 
OC[C@@H]1[C@@H](O)[C@H](O)[C@@H](O)c2cn[nH][n+]21

$$$$
1NOJ_NTZ_A_998
     RDKit          3D

 14 15  0  0  0  0  0  0  0  0999 V2000
   34.2960   22.7680   27.5250 C   0  0  0  0  0  0  0  0  0  0  0  0
   34.2310   23.1820   26.0800 C   0  0  0  0  0  0  0  0  0  0  0  0
   32.9220   22.6430   25.4330 C   0  0  0  0  0  0  0  0  0  0  0  0
   32.6480   21.2010   25.8260 C   0  0  0  0  0  0  0  0  0  0  0  0
   32.4420   21.0550   27.3600 C   0  0  0  0  0  0  0  0  0  0  0  0
   32.4450   19.6130   27.8200 C   0  0  0  0  0  0  0  0  0  0  0  0
   33.4670   21.7860   28.0390 N   0  0  0  0  0  0  0  0  0  0  0  0
   33.8730   21.6990   29.3640 N   0  0  0  0  0  0  0  0  0  0  0  0
   34.9080   22.6060   29.6140 N   0  0  0  0  0  0  0  0  0  0  0  0
   35.1840   23.2940   28.4460 N   0  0  0  0  0  0  0  0  0  0  0  0
   34.3180   24.6000   25.9090 O   0  0  0  0  0  0  0  0  0  0  0  0
   33.1190   22.6840   24.0130 O   0  0  0  0  0  0  0  0  0  0  0  0
   31.4850   20.7110   25.1540 O   0  0  0  0  0  0  0  0  0  0  0  0
   33.4420   18.8580   27.1300 O   0  0  0  0  0  0  0  0  0  0  0  0
  2  1  1  0
  7  1  1  0
 10  1  2  0
  3  2  1  0
 11  2  1  0
  4  3  1  0
 12  3  1  0
  5  4  1  0
 13  4  1  0
  6  5  1  0
  7  5  1  0
 14  6  1  0
  8  7  1  0
  9  8  2  0
 10  9  1  0
A    1
C1
A    2
C2
A    3
C3
A    4
C4
A    5
C5
A    6
C6
A    7
N1
A    8
N17
A    9
N18
A   10
N21
A   11
O2
A   12
O3
A   13
O4
A   14
O6
M  END
>  <Id>  (113) 
1NOJ_NTZ_A_998

>  <ChainId>  (113) 
A

>  <AsymId>  (113) 
E

>  <SeqNum>  (113) 
998

>  <Name>  (113) 
NOJIRIMYCINE TETRAZOLE

>  <SystematicName>  (113) 
(5R,6R,7S,8S)-5-(hydroxymethyl)-5,6,7,8-tetrahydro-[1,2,3,4]tetrazolo[5,1-f]pyridine-6,7,8-triol

>  <Synonyms>  (113) 


>  <Type>  (113) 
NON-POLYMER

>  <Formula>  (113) 
C6 H10 N4 O4

>  <ObservedFormula>  (113) 
C6 N4 O4

>  <MolecularWeight>  (113) 
202.168

>  <ModifiedDate>  (113) 
2011-06-04

>  <Parent>  (113) 


>  <OneLetterCode>  (113) 


>  <SubcomponentList>  (113) 


>  <AmbiguousFlag>  (113) 
N

>  <InsertionCode>  (113) 


>  <InstanceId>  (113) 
1NOJ_NTZ_A_998

>  <ChemCompId>  (113) 
NTZ

>  <PdbId>  (113) 
1NOJ

>  <ResidueNumber>  (113) 
998

>  <InChI>  (113) 
InChI=1S/C6H10N4O4/c11-1-2-3(12)4(13)5(14)6-7-8-9-10(2)6/h2-5,11-14H,1H2/t2-,3-,4+,5-/m1/s1

>  <InChIKey>  (113) 
UCJXQRFJERKPOZ-SQOUGZDYSA-N

>  <SMILES>  (113) 
C([C@@H]1[C@H]([C@@H]([C@H](c2n1nnn2)O)O)O)O

>  <MissingHeavyAtoms>  (113) 
0

>  <Model>  (113) 
1

>  <AltIds>  (113) 


>  <pKI>  (113) 
3.15

>  <ChemblID>  (113) 
-

>  <standardized_canonical_smiles>  (113) 
OC[C@@H]1[C@@H](O)[C@H](O)[C@@H](O)c2nnnn21

$$$$
1NOK_NTZ_A_998
     RDKit          3D

 14 15  0  0  0  0  0  0  0  0999 V2000
   34.2220   22.6130   27.5810 C   0  0  0  0  0  0  0  0  0  0  0  0
   34.1850   23.0950   26.1230 C   0  0  0  0  0  0  0  0  0  0  0  0
   32.8880   22.5700   25.5160 C   0  0  0  0  0  0  0  0  0  0  0  0
   32.6040   21.1180   25.9260 C   0  0  0  0  0  0  0  0  0  0  0  0
   32.2920   20.9990   27.4650 C   0  0  0  0  0  0  0  0  0  0  0  0
   32.1480   19.5640   28.0230 C   0  0  0  0  0  0  0  0  0  0  0  0
   33.3500   21.6550   28.1260 N   0  0  0  0  0  0  0  0  0  0  0  0
   33.7280   21.5170   29.4530 N   0  0  0  0  0  0  0  0  0  0  0  0
   34.8110   22.3620   29.6840 N   0  0  0  0  0  0  0  0  0  0  0  0
   35.1390   23.0620   28.5180 N   0  0  0  0  0  0  0  0  0  0  0  0
   34.3020   24.5200   25.9540 O   0  0  0  0  0  0  0  0  0  0  0  0
   32.9400   22.5910   24.0970 O   0  0  0  0  0  0  0  0  0  0  0  0
   31.4940   20.6920   25.1650 O   0  0  0  0  0  0  0  0  0  0  0  0
   33.2270   18.7170   27.5520 O   0  0  0  0  0  0  0  0  0  0  0  0
  2  1  1  0
  7  1  1  0
 10  1  2  0
  3  2  1  0
 11  2  1  0
  4  3  1  0
 12  3  1  0
  5  4  1  0
 13  4  1  0
  6  5  1  0
  7  5  1  0
 14  6  1  0
  8  7  1  0
  9  8  2  0
 10  9  1  0
A    1
C1
A    2
C2
A    3
C3
A    4
C4
A    5
C5
A    6
C6
A    7
N1
A    8
N17
A    9
N18
A   10
N21
A   11
O2
A   12
O3
A   13
O4
A   14
O6
M  END
>  <Id>  (114) 
1NOK_NTZ_A_998

>  <ChainId>  (114) 
A

>  <AsymId>  (114) 
C

>  <SeqNum>  (114) 
998

>  <Name>  (114) 
NOJIRIMYCINE TETRAZOLE

>  <SystematicName>  (114) 
(5R,6R,7S,8S)-5-(hydroxymethyl)-5,6,7,8-tetrahydro-[1,2,3,4]tetrazolo[5,1-f]pyridine-6,7,8-triol

>  <Synonyms>  (114) 


>  <Type>  (114) 
NON-POLYMER

>  <Formula>  (114) 
C6 H10 N4 O4

>  <ObservedFormula>  (114) 
C6 N4 O4

>  <MolecularWeight>  (114) 
202.168

>  <ModifiedDate>  (114) 
2011-06-04

>  <Parent>  (114) 


>  <OneLetterCode>  (114) 


>  <SubcomponentList>  (114) 


>  <AmbiguousFlag>  (114) 
N

>  <InsertionCode>  (114) 


>  <InstanceId>  (114) 
1NOK_NTZ_A_998

>  <ChemCompId>  (114) 
NTZ

>  <PdbId>  (114) 
1NOK

>  <ResidueNumber>  (114) 
998

>  <InChI>  (114) 
InChI=1S/C6H10N4O4/c11-1-2-3(12)4(13)5(14)6-7-8-9-10(2)6/h2-5,11-14H,1H2/t2-,3-,4+,5-/m1/s1

>  <InChIKey>  (114) 
UCJXQRFJERKPOZ-SQOUGZDYSA-N

>  <SMILES>  (114) 
C([C@@H]1[C@H]([C@@H]([C@H](c2n1nnn2)O)O)O)O

>  <MissingHeavyAtoms>  (114) 
0

>  <Model>  (114) 
1

>  <AltIds>  (114) 


>  <pKI>  (114) 
3.15

>  <ChemblID>  (114) 
-

>  <standardized_canonical_smiles>  (114) 
OC[C@@H]1[C@@H](O)[C@H](O)[C@@H](O)c2nnnn21

$$$$
1NOI_NTZ_D_998
     RDKit          3D

 14 15  0  0  0  0  0  0  0  0999 V2000
   55.3340   49.0210   12.2360 C   0  0  0  0  0  0  0  0  0  0  0  0
   56.2930   48.0510   14.1670 N   0  0  0  0  0  0  0  0  0  0  0  0
   54.9370   47.6010   11.7710 C   0  0  0  0  0  0  0  0  0  0  0  0
   56.3740   46.9270   16.2090 N   0  0  0  0  0  0  0  0  0  0  0  0
   53.8230   47.7390   10.8940 O   0  0  0  0  0  0  0  0  0  0  0  0
   55.7590   50.9990   14.3540 O   0  0  0  0  0  0  0  0  0  0  0  0
   56.8510   47.9870   15.4500 N   0  0  0  0  0  0  0  0  0  0  0  0
   56.8870   50.3600   13.7250 C   0  0  0  0  0  0  0  0  0  0  0  0
   55.4590   46.3070   15.3810 N   0  0  0  0  0  0  0  0  0  0  0  0
   54.5450   46.6630   12.9620 C   0  0  0  0  0  0  0  0  0  0  0  0
   56.5420   48.9920   13.1320 C   0  0  0  0  0  0  0  0  0  0  0  0
   55.4300   46.9890   14.1610 C   0  0  0  0  0  0  0  0  0  0  0  0
   55.6250   49.8460   11.1420 O   0  0  0  0  0  0  0  0  0  0  0  0
   54.6150   45.2890   12.5370 O   0  0  0  0  0  0  0  0  0  0  0  0
  1 13  1  0
 10 14  1  0
 10  3  1  0
  8  6  1  0
  4  9  1  0
 11  2  1  0
  3  1  1  0
  1 11  1  0
  3  5  1  0
 12 10  1  0
  2  7  1  0
  7  4  2  0
 12  9  2  0
 11  8  1  0
 12  2  1  0
A    1
C4
A    2
N1
A    3
C3
A    4
N18
A    5
O3
A    6
O6
A    7
N17
A    8
C6
A    9
N21
A   10
C2
A   11
C5
A   12
C1
A   13
O4
A   14
O2
M  END
>  <InstanceId>  (115) 
1NOI_NTZ_D_998

>  <ChemCompId>  (115) 
NTZ

>  <PdbId>  (115) 
1NOI

>  <ChainId>  (115) 
D

>  <ResidueNumber>  (115) 
998

>  <InsertionCode>  (115) 


>  <Model>  (115) 
1

>  <AltIds>  (115) 


>  <MissingHeavyAtoms>  (115) 
0

>  <ObservedFormula>  (115) 
C6 N4 O4

>  <AsymId>  (115) 
P

>  <SeqNum>  (115) 
998

>  <Name>  (115) 
NOJIRIMYCINE TETRAZOLE

>  <SystematicName>  (115) 
(5R,6R,7S,8S)-5-(hydroxymethyl)-5,6,7,8-tetrahydro-[1,2,3,4]tetrazolo[5,1-f]pyridine-6,7,8-triol

>  <Synonyms>  (115) 


>  <Type>  (115) 
NON-POLYMER

>  <Formula>  (115) 
C6 H10 N4 O4

>  <MolecularWeight>  (115) 
202.168

>  <ModifiedDate>  (115) 
2011-06-04

>  <Parent>  (115) 


>  <OneLetterCode>  (115) 


>  <SubcomponentList>  (115) 


>  <AmbiguousFlag>  (115) 
N

>  <InChI>  (115) 
null

>  <InChIKey>  (115) 
null

>  <SMILES>  (115) 
C([C@@H]1[C@H]([C@@H]([C@H](c2n1nnn2)O)O)O)O

>  <pKI>  (115) 
3.15

>  <ChemblID>  (115) 
-

>  <standardized_canonical_smiles>  (115) 
OC[C@@H]1[C@@H](O)[C@H](O)[C@@H](O)c2nnnn21

$$$$
2QRP_S06_A_998
     RDKit          3D

 25 28  0  0  0  0  0  0  0  0999 V2000
   36.2690   24.6150   30.4880 C   0  0  0  0  0  0  0  0  0  0  0  0
   36.9200   25.1130   31.6240 C   0  0  0  0  0  0  0  0  0  0  0  0
   38.2910   25.3550   31.5810 C   0  0  0  0  0  0  0  0  0  0  0  0
   38.9300   25.8500   32.7220 C   0  0  0  0  0  0  0  0  0  0  0  0
   38.2130   26.1050   33.8940 C   0  0  0  0  0  0  0  0  0  0  0  0
   36.8410   25.8670   33.9390 C   0  0  0  0  0  0  0  0  0  0  0  0
   36.1980   25.3730   32.7990 C   0  0  0  0  0  0  0  0  0  0  0  0
   34.8280   25.1280   32.8400 C   0  0  0  0  0  0  0  0  0  0  0  0
   34.1850   24.6370   31.7040 C   0  0  0  0  0  0  0  0  0  0  0  0
   34.8970   24.3690   30.5300 C   0  0  0  0  0  0  0  0  0  0  0  0
   34.2170   23.8950   29.4030 C   0  0  0  0  0  0  0  0  0  0  0  0
   34.8140   23.2020   28.1810 C   0  0  0  0  0  0  0  0  0  0  0  0
   32.9080   24.0230   29.2040 N   0  0  0  0  0  0  0  0  0  0  0  0
   32.4780   23.4740   27.9610 O   0  0  0  0  0  0  0  0  0  0  0  0
   33.5790   22.7290   27.4130 C   0  0  0  0  0  0  0  0  0  0  0  0
   33.3860   21.3180   27.6420 O   0  0  0  0  0  0  0  0  0  0  0  0
   32.1730   20.7930   27.0250 C   0  0  0  0  0  0  0  0  0  0  0  0
   32.0140   19.3370   27.4590 C   0  0  0  0  0  0  0  0  0  0  0  0
   33.0630   18.5510   26.8780 O   0  0  0  0  0  0  0  0  0  0  0  0
   32.2790   20.9650   25.4970 C   0  0  0  0  0  0  0  0  0  0  0  0
   31.1080   20.4510   24.8440 O   0  0  0  0  0  0  0  0  0  0  0  0
   32.4960   22.4410   25.1320 C   0  0  0  0  0  0  0  0  0  0  0  0
   32.7230   22.5600   23.7220 O   0  0  0  0  0  0  0  0  0  0  0  0
   33.7070   23.0090   25.9020 C   0  0  0  0  0  0  0  0  0  0  0  0
   33.8470   24.4170   25.6640 O   0  0  0  0  0  0  0  0  0  0  0  0
  2  1  2  0
 10  1  1  0
  3  2  1  0
  7  2  1  0
  4  3  2  0
  5  4  1  0
  6  5  2  0
  7  6  1  0
  8  7  2  0
  9  8  1  0
 10  9  2  0
 11 10  1  0
 12 11  1  0
 13 11  1  0
 15 12  1  0
 14 13  1  0
 15 14  1  0
 16 15  1  0
 24 15  1  0
 17 16  1  0
 18 17  1  0
 20 17  1  0
 19 18  1  0
 21 20  1  0
 22 20  1  0
 23 22  1  0
 24 22  1  0
 25 24  1  0
A    1
C10
A    2
C11
A    3
C12
A    4
C13
A    5
C14
A    6
C15
A    7
C16
A    8
C17
A    9
C18
A   10
C9
A   11
C8
A   12
C7
A   13
N1
A   14
O7
A   15
C1
A   16
O5
A   17
C5
A   18
C6
A   19
O6
A   20
C4
A   21
O4
A   22
C3
A   23
O3
A   24
C2
A   25
O2
M  END
>  <Id>  (116) 
2QRP_S06_A_998

>  <ChainId>  (116) 
A

>  <AsymId>  (116) 
B

>  <SeqNum>  (116) 
998

>  <Name>  (116) 
(3S,5R,7R,8S,9S,10R)-7-(hydroxymethyl)-3-(2-naphthyl)-1,6-dioxa-2-azaspiro[4.5]decane-8,9,10-triol

>  <SystematicName>  (116) 
(5R,6R,7S,8S,9R)-9-(hydroxymethyl)-3-naphthalen-2-yl-1,10-dioxa-2-azaspiro[4.5]decane-6,7,8-triol

>  <Synonyms>  (116) 
(1R)-3'-(2-naphthyl)-spiro[1,5-anhydro-D-glucitol-1,5'-isoxazoline]

>  <Type>  (116) 
NON-POLYMER

>  <Formula>  (116) 
C18 H21 N O6

>  <ObservedFormula>  (116) 
C18 N O6

>  <MolecularWeight>  (116) 
347.362

>  <ModifiedDate>  (116) 
2011-06-04

>  <Parent>  (116) 


>  <OneLetterCode>  (116) 


>  <SubcomponentList>  (116) 


>  <AmbiguousFlag>  (116) 


>  <InsertionCode>  (116) 


>  <InstanceId>  (116) 
2QRP_S06_A_998

>  <ChemCompId>  (116) 
S06

>  <PdbId>  (116) 
2QRP

>  <ResidueNumber>  (116) 
998

>  <InChI>  (116) 
InChI=1S/C18H21NO6/c20-9-14-15(21)16(22)17(23)18(24-14)8-13(19-25-18)12-6-5-10-3-1-2-4-11(10)7-12/h1-7,13-17,19-23H,8-9H2/t13-,14+,15+,16-,17+,18+/m0/s1

>  <InChIKey>  (116) 
ZCJBDRSKHARECB-PYTCMNEWSA-N

>  <SMILES>  (116) 
c1ccc2cc(ccc2c1)C3C[C@]4([C@@H]([C@H]([C@@H]([C@H](O4)CO)O)O)O)ON3

>  <MissingHeavyAtoms>  (116) 
0

>  <Model>  (116) 
1

>  <AltIds>  (116) 


>  <pKI>  (116) 
6.2

>  <ChemblID>  (116) 
-

>  <standardized_canonical_smiles>  (116) 
OC[C@H]1O[C@@]2(CC(c3ccc4ccccc4c3)NO2)[C@H](O)[C@@H](O)[C@@H]1O

$$$$
6GPB_GLC_A_907
     RDKit          3D

 11 12  0  0  0  0  0  0  0  0999 V2000
   67.3120   16.9500   42.4110 C   0  0  0  0  0  0  0  0  0  0  0  0
   68.8370   17.1100   42.4770 C   0  0  0  0  0  0  0  0  0  0  0  0
   69.5050   16.2730   41.3800 C   0  0  0  0  0  0  0  0  0  0  0  0
   69.1060   14.8250   41.6010 C   0  0  0  0  0  0  0  0  0  0  0  0
   67.5770   14.7290   41.5320 C   0  0  0  0  0  0  0  0  0  0  0  0
   67.0870   13.3140   41.7720 C   0  0  0  0  0  0  0  0  0  0  0  0
   69.1500   18.4910   42.2960 O   0  0  0  0  0  0  0  0  0  0  0  0
   70.9160   16.4620   41.5070 O   0  0  0  0  0  0  0  0  0  0  0  0
   69.6980   13.9940   40.6000 O   0  0  0  0  0  0  0  0  0  0  0  0
   66.9820   15.5750   42.5350 O   0  0  0  0  0  0  0  0  0  0  0  0
   67.4450   12.8100   43.0610 O   0  0  0  0  0  0  0  0  0  0  0  0
  2  1  1  0
 10  1  1  0
  1  9  1  0
  3  2  1  0
  7  2  1  0
  4  3  1  0
  8  3  1  0
  5  4  1  0
  9  4  1  0
  6  5  1  0
 10  5  1  0
 11  6  1  0
A    1
C1
A    2
C2
A    3
C3
A    4
C4
A    5
C5
A    6
C6
A    7
O2
A    8
O3
A    9
O4
A   10
O5
A   11
O6
M  END
>  <Id>  (117) 
6GPB_GLC_A_907

>  <ChainId>  (117) 
A

>  <AsymId>  (117) 
G

>  <SeqNum>  (117) 
907

>  <Name>  (117) 
ALPHA-D-GLUCOSE

>  <SystematicName>  (117) 
(2S,3R,4S,5S,6R)-6-(hydroxymethyl)oxane-2,3,4,5-tetrol

>  <Synonyms>  (117) 


>  <Type>  (117) 
SACCHARIDE

>  <Formula>  (117) 
C6 H12 O6

>  <ObservedFormula>  (117) 
C6 O5

>  <MolecularWeight>  (117) 
180.156

>  <ModifiedDate>  (117) 
2011-06-04

>  <Parent>  (117) 


>  <OneLetterCode>  (117) 


>  <SubcomponentList>  (117) 


>  <AmbiguousFlag>  (117) 
N

>  <InsertionCode>  (117) 


>  <InstanceId>  (117) 
6GPB_GLC_A_907

>  <ChemCompId>  (117) 
GLC

>  <PdbId>  (117) 
6GPB

>  <ResidueNumber>  (117) 
907

>  <InChI>  (117) 
InChI=1S/C6H12O6/c7-1-2-3(8)4(9)5(10)6(11)12-2/h2-11H,1H2/t2-,3-,4+,5-,6+/m1/s1

>  <InChIKey>  (117) 
WQZGKKKJIJFFOK-DVKNGEFBSA-N

>  <SMILES>  (117) 
C([C@@H]1[C@H]([C@@H]([C@H]([C@H](O1)O)O)O)O)O

>  <MissingHeavyAtoms>  (117) 
1

>  <Model>  (117) 
1

>  <AltIds>  (117) 


>  <pKI>  (117) 
2.74

>  <ChemblID>  (117) 
-

>  <standardized_canonical_smiles>  (117) 
OC[C@H]1O[C@H](O)[C@H](O)[C@@H](O)[C@@H]1O

$$$$
1P2B_GLC_A_847
     RDKit          3D

 11 12  0  0  0  0  0  0  0  0999 V2000
   67.8540   17.0650   42.6730 C   0  0  0  0  0  0  0  0  0  0  0  0
   69.3200   16.7160   42.3950 C   0  0  0  0  0  0  0  0  0  0  0  0
   69.3940   15.5780   41.3860 C   0  0  0  0  0  0  0  0  0  0  0  0
   68.5780   14.3570   41.8620 C   0  0  0  0  0  0  0  0  0  0  0  0
   67.1580   14.7590   42.3030 C   0  0  0  0  0  0  0  0  0  0  0  0
   66.4520   13.6280   43.0450 C   0  0  0  0  0  0  0  0  0  0  0  0
   70.0070   17.8470   41.8660 O   0  0  0  0  0  0  0  0  0  0  0  0
   70.7640   15.2100   41.2300 O   0  0  0  0  0  0  0  0  0  0  0  0
   68.4780   13.4170   40.7910 O   0  0  0  0  0  0  0  0  0  0  0  0
   67.2020   15.9010   43.2130 O   0  0  0  0  0  0  0  0  0  0  0  0
   65.9760   14.0790   44.3130 O   0  0  0  0  0  0  0  0  0  0  0  0
  2  1  1  0
 10  1  1  0
  1  9  1  0
  3  2  1  0
  7  2  1  0
  4  3  1  0
  8  3  1  0
  5  4  1  0
  9  4  1  0
  6  5  1  0
 10  5  1  0
 11  6  1  0
A    1
C1
A    2
C2
A    3
C3
A    4
C4
A    5
C5
A    6
C6
A    7
O2
A    8
O3
A    9
O4
A   10
O5
A   11
O6
M  END
>  <Id>  (118) 
1P2B_GLC_A_847

>  <ChainId>  (118) 
A

>  <AsymId>  (118) 
F

>  <SeqNum>  (118) 
847

>  <Name>  (118) 
ALPHA-D-GLUCOSE

>  <SystematicName>  (118) 
(2S,3R,4S,5S,6R)-6-(hydroxymethyl)oxane-2,3,4,5-tetrol

>  <Synonyms>  (118) 


>  <Type>  (118) 
SACCHARIDE

>  <Formula>  (118) 
C6 H12 O6

>  <ObservedFormula>  (118) 
C6 O5

>  <MolecularWeight>  (118) 
180.156

>  <ModifiedDate>  (118) 
2011-06-04

>  <Parent>  (118) 


>  <OneLetterCode>  (118) 


>  <SubcomponentList>  (118) 


>  <AmbiguousFlag>  (118) 
N

>  <InsertionCode>  (118) 


>  <InstanceId>  (118) 
1P2B_GLC_A_847

>  <ChemCompId>  (118) 
GLC

>  <PdbId>  (118) 
1P2B

>  <ResidueNumber>  (118) 
847

>  <InChI>  (118) 
InChI=1S/C6H12O6/c7-1-2-3(8)4(9)5(10)6(11)12-2/h2-11H,1H2/t2-,3-,4+,5-,6+/m1/s1

>  <InChIKey>  (118) 
WQZGKKKJIJFFOK-DVKNGEFBSA-N

>  <SMILES>  (118) 
C([C@@H]1[C@H]([C@@H]([C@H]([C@H](O1)O)O)O)O)O

>  <MissingHeavyAtoms>  (118) 
1

>  <Model>  (118) 
1

>  <AltIds>  (118) 


>  <pKI>  (118) 
2.74

>  <ChemblID>  (118) 
-

>  <standardized_canonical_smiles>  (118) 
OC[C@H]1O[C@H](O)[C@H](O)[C@@H](O)[C@@H]1O

$$$$
3AMV_GLC_A_998
     RDKit          3D

 12 12  0  0  0  0  0  0  0  0999 V2000
   33.2000   22.6150   27.7900 C   0  0  0  0  0  0  0  0  0  0  0  0
   33.3710   22.9700   26.2390 C   0  0  0  0  0  0  0  0  0  0  0  0
   32.2330   22.2530   25.3720 C   0  0  0  0  0  0  0  0  0  0  0  0
   32.0660   20.7600   25.6930 C   0  0  0  0  0  0  0  0  0  0  0  0
   31.8530   20.5910   27.2370 C   0  0  0  0  0  0  0  0  0  0  0  0
   31.7270   19.1400   27.6410 C   0  0  0  0  0  0  0  0  0  0  0  0
   32.2100   23.3980   28.4770 O   0  0  0  0  0  0  0  0  0  0  0  0
   33.3360   24.3720   26.0140 O   0  0  0  0  0  0  0  0  0  0  0  0
   32.4770   22.2980   23.9940 O   0  0  0  0  0  0  0  0  0  0  0  0
   30.9560   20.3200   24.9610 O   0  0  0  0  0  0  0  0  0  0  0  0
   32.9900   21.1760   27.9370 O   0  0  0  0  0  0  0  0  0  0  0  0
   32.8020   18.4470   27.0580 O   0  0  0  0  0  0  0  0  0  0  0  0
  2  1  1  0
  7  1  1  0
 11  1  1  0
  3  2  1  0
  8  2  1  0
  4  3  1  0
  9  3  1  0
  5  4  1  0
 10  4  1  0
  6  5  1  0
 11  5  1  0
 12  6  1  0
A    1
C1
A    2
C2
A    3
C3
A    4
C4
A    5
C5
A    6
C6
A    7
O1
A    8
O2
A    9
O3
A   10
O4
A   11
O5
A   12
O6
M  END
>  <Id>  (119) 
3AMV_GLC_A_998

>  <ChainId>  (119) 
A

>  <AsymId>  (119) 
B

>  <SeqNum>  (119) 
998

>  <Name>  (119) 
ALPHA-D-GLUCOSE

>  <SystematicName>  (119) 
(2S,3R,4S,5S,6R)-6-(hydroxymethyl)oxane-2,3,4,5-tetrol

>  <Synonyms>  (119) 


>  <Type>  (119) 
SACCHARIDE

>  <Formula>  (119) 
C6 H12 O6

>  <ObservedFormula>  (119) 
C6 O6

>  <MolecularWeight>  (119) 
180.156

>  <ModifiedDate>  (119) 
2011-06-04

>  <Parent>  (119) 


>  <OneLetterCode>  (119) 


>  <SubcomponentList>  (119) 


>  <AmbiguousFlag>  (119) 
N

>  <InsertionCode>  (119) 


>  <InstanceId>  (119) 
3AMV_GLC_A_998

>  <ChemCompId>  (119) 
GLC

>  <PdbId>  (119) 
3AMV

>  <ResidueNumber>  (119) 
998

>  <InChI>  (119) 
InChI=1S/C6H12O6/c7-1-2-3(8)4(9)5(10)6(11)12-2/h2-11H,1H2/t2-,3-,4+,5-,6+/m1/s1

>  <InChIKey>  (119) 
WQZGKKKJIJFFOK-DVKNGEFBSA-N

>  <SMILES>  (119) 
C([C@@H]1[C@H]([C@@H]([C@H]([C@H](O1)O)O)O)O)O

>  <MissingHeavyAtoms>  (119) 
0

>  <Model>  (119) 
1

>  <AltIds>  (119) 


>  <pKI>  (119) 
2.74

>  <ChemblID>  (119) 
-

>  <standardized_canonical_smiles>  (119) 
OC[C@H]1O[C@H](O)[C@H](O)[C@@H](O)[C@@H]1O

$$$$
1P29_GLC_A_847
     RDKit          3D

 11 12  0  0  0  0  0  0  0  0999 V2000
   67.9180   17.0630   42.5580 C   0  0  0  0  0  0  0  0  0  0  0  0
   69.4260   16.8790   42.3840 C   0  0  0  0  0  0  0  0  0  0  0  0
   69.6890   15.8480   41.2790 C   0  0  0  0  0  0  0  0  0  0  0  0
   68.9500   14.5320   41.5770 C   0  0  0  0  0  0  0  0  0  0  0  0
   67.4650   14.7900   41.8750 C   0  0  0  0  0  0  0  0  0  0  0  0
   66.7430   13.5480   42.3730 C   0  0  0  0  0  0  0  0  0  0  0  0
   70.0270   18.1230   42.0470 O   0  0  0  0  0  0  0  0  0  0  0  0
   71.0850   15.6010   41.1780 O   0  0  0  0  0  0  0  0  0  0  0  0
   69.0610   13.6600   40.4600 O   0  0  0  0  0  0  0  0  0  0  0  0
   67.3240   15.8110   42.8930 O   0  0  0  0  0  0  0  0  0  0  0  0
   66.3600   13.6810   43.7350 O   0  0  0  0  0  0  0  0  0  0  0  0
  2  1  1  0
 10  1  1  0
  1  9  1  0
  3  2  1  0
  7  2  1  0
  4  3  1  0
  8  3  1  0
  5  4  1  0
  9  4  1  0
  6  5  1  0
 10  5  1  0
 11  6  1  0
A    1
C1
A    2
C2
A    3
C3
A    4
C4
A    5
C5
A    6
C6
A    7
O2
A    8
O3
A    9
O4
A   10
O5
A   11
O6
M  END
>  <Id>  (120) 
1P29_GLC_A_847

>  <ChainId>  (120) 
A

>  <AsymId>  (120) 
F

>  <SeqNum>  (120) 
847

>  <Name>  (120) 
ALPHA-D-GLUCOSE

>  <SystematicName>  (120) 
(2S,3R,4S,5S,6R)-6-(hydroxymethyl)oxane-2,3,4,5-tetrol

>  <Synonyms>  (120) 


>  <Type>  (120) 
SACCHARIDE

>  <Formula>  (120) 
C6 H12 O6

>  <ObservedFormula>  (120) 
C6 O5

>  <MolecularWeight>  (120) 
180.156

>  <ModifiedDate>  (120) 
2011-06-04

>  <Parent>  (120) 


>  <OneLetterCode>  (120) 


>  <SubcomponentList>  (120) 


>  <AmbiguousFlag>  (120) 
N

>  <InsertionCode>  (120) 


>  <InstanceId>  (120) 
1P29_GLC_A_847

>  <ChemCompId>  (120) 
GLC

>  <PdbId>  (120) 
1P29

>  <ResidueNumber>  (120) 
847

>  <InChI>  (120) 
InChI=1S/C6H12O6/c7-1-2-3(8)4(9)5(10)6(11)12-2/h2-11H,1H2/t2-,3-,4+,5-,6+/m1/s1

>  <InChIKey>  (120) 
WQZGKKKJIJFFOK-DVKNGEFBSA-N

>  <SMILES>  (120) 
C([C@@H]1[C@H]([C@@H]([C@H]([C@H](O1)O)O)O)O)O

>  <MissingHeavyAtoms>  (120) 
1

>  <Model>  (120) 
1

>  <AltIds>  (120) 


>  <pKI>  (120) 
2.74

>  <ChemblID>  (120) 
-

>  <standardized_canonical_smiles>  (120) 
OC[C@H]1O[C@H](O)[C@H](O)[C@@H](O)[C@@H]1O

$$$$
1LWN_GLC_A_998
     RDKit          3D

 12 12  0  0  0  0  0  0  0  0999 V2000
   33.4400   22.8640   28.0160 C   0  0  0  0  0  0  0  0  0  0  0  0
   33.6450   23.1510   26.4870 C   0  0  0  0  0  0  0  0  0  0  0  0
   32.4070   22.5800   25.6830 C   0  0  0  0  0  0  0  0  0  0  0  0
   32.0830   21.1000   26.0480 C   0  0  0  0  0  0  0  0  0  0  0  0
   31.9360   20.9640   27.6010 C   0  0  0  0  0  0  0  0  0  0  0  0
   31.7320   19.5280   27.9510 C   0  0  0  0  0  0  0  0  0  0  0  0
   32.3560   23.6310   28.4640 O   0  0  0  0  0  0  0  0  0  0  0  0
   33.8020   24.5470   26.2540 O   0  0  0  0  0  0  0  0  0  0  0  0
   32.6370   22.6200   24.3060 O   0  0  0  0  0  0  0  0  0  0  0  0
   30.8830   20.6930   25.4130 O   0  0  0  0  0  0  0  0  0  0  0  0
   33.1540   21.4490   28.2270 O   0  0  0  0  0  0  0  0  0  0  0  0
   32.8260   18.8060   27.4190 O   0  0  0  0  0  0  0  0  0  0  0  0
  2  1  1  0
  7  1  1  0
 11  1  1  0
  3  2  1  0
  8  2  1  0
  4  3  1  0
  9  3  1  0
  5  4  1  0
 10  4  1  0
  6  5  1  0
 11  5  1  0
 12  6  1  0
A    1
C1
A    2
C2
A    3
C3
A    4
C4
A    5
C5
A    6
C6
A    7
O1
A    8
O2
A    9
O3
A   10
O4
A   11
O5
A   12
O6
M  END
>  <Id>  (121) 
1LWN_GLC_A_998

>  <ChainId>  (121) 
A

>  <AsymId>  (121) 
B

>  <SeqNum>  (121) 
998

>  <Name>  (121) 
ALPHA-D-GLUCOSE

>  <SystematicName>  (121) 
(2S,3R,4S,5S,6R)-6-(hydroxymethyl)oxane-2,3,4,5-tetrol

>  <Synonyms>  (121) 


>  <Type>  (121) 
SACCHARIDE

>  <Formula>  (121) 
C6 H12 O6

>  <ObservedFormula>  (121) 
C6 O6

>  <MolecularWeight>  (121) 
180.156

>  <ModifiedDate>  (121) 
2011-06-04

>  <Parent>  (121) 


>  <OneLetterCode>  (121) 


>  <SubcomponentList>  (121) 


>  <AmbiguousFlag>  (121) 
N

>  <InsertionCode>  (121) 


>  <InstanceId>  (121) 
1LWN_GLC_A_998

>  <ChemCompId>  (121) 
GLC

>  <PdbId>  (121) 
1LWN

>  <ResidueNumber>  (121) 
998

>  <InChI>  (121) 
InChI=1S/C6H12O6/c7-1-2-3(8)4(9)5(10)6(11)12-2/h2-11H,1H2/t2-,3-,4+,5-,6+/m1/s1

>  <InChIKey>  (121) 
WQZGKKKJIJFFOK-DVKNGEFBSA-N

>  <SMILES>  (121) 
C([C@@H]1[C@H]([C@@H]([C@H]([C@H](O1)O)O)O)O)O

>  <MissingHeavyAtoms>  (121) 
0

>  <Model>  (121) 
1

>  <AltIds>  (121) 


>  <pKI>  (121) 
2.74

>  <ChemblID>  (121) 
-

>  <standardized_canonical_smiles>  (121) 
OC[C@H]1O[C@H](O)[C@H](O)[C@@H](O)[C@@H]1O

$$$$
2PYD_GLC_A_998
     RDKit          3D

 12 12  0  0  0  0  0  0  0  0999 V2000
   33.1340   22.4330   27.4870 C   0  0  0  0  0  0  0  0  0  0  0  0
   33.3620   22.7290   25.9990 C   0  0  0  0  0  0  0  0  0  0  0  0
   32.2540   22.1270   25.1290 C   0  0  0  0  0  0  0  0  0  0  0  0
   32.0540   20.6400   25.4620 C   0  0  0  0  0  0  0  0  0  0  0  0
   31.8890   20.4390   26.9780 C   0  0  0  0  0  0  0  0  0  0  0  0
   31.8140   18.9630   27.3720 C   0  0  0  0  0  0  0  0  0  0  0  0
   32.0150   23.1480   27.9670 O   0  0  0  0  0  0  0  0  0  0  0  0
   33.4730   24.1240   25.7990 O   0  0  0  0  0  0  0  0  0  0  0  0
   32.5710   22.2840   23.7600 O   0  0  0  0  0  0  0  0  0  0  0  0
   30.9100   20.1440   24.7910 O   0  0  0  0  0  0  0  0  0  0  0  0
   32.9610   21.0370   27.6920 O   0  0  0  0  0  0  0  0  0  0  0  0
   32.8730   18.2340   26.7700 O   0  0  0  0  0  0  0  0  0  0  0  0
  2  1  1  0
  7  1  1  0
 11  1  1  0
  3  2  1  0
  8  2  1  0
  4  3  1  0
  9  3  1  0
  5  4  1  0
 10  4  1  0
  6  5  1  0
 11  5  1  0
 12  6  1  0
A    1
C1
A    2
C2
A    3
C3
A    4
C4
A    5
C5
A    6
C6
A    7
O1
A    8
O2
A    9
O3
A   10
O4
A   11
O5
A   12
O6
M  END
>  <Id>  (122) 
2PYD_GLC_A_998

>  <ChainId>  (122) 
A

>  <AsymId>  (122) 
B

>  <SeqNum>  (122) 
998

>  <Name>  (122) 
ALPHA-D-GLUCOSE

>  <SystematicName>  (122) 
(2S,3R,4S,5S,6R)-6-(hydroxymethyl)oxane-2,3,4,5-tetrol

>  <Synonyms>  (122) 


>  <Type>  (122) 
SACCHARIDE

>  <Formula>  (122) 
C6 H12 O6

>  <ObservedFormula>  (122) 
C6 O6

>  <MolecularWeight>  (122) 
180.156

>  <ModifiedDate>  (122) 
2011-06-04

>  <Parent>  (122) 


>  <OneLetterCode>  (122) 


>  <SubcomponentList>  (122) 


>  <AmbiguousFlag>  (122) 
N

>  <InsertionCode>  (122) 


>  <InstanceId>  (122) 
2PYD_GLC_A_998

>  <ChemCompId>  (122) 
GLC

>  <PdbId>  (122) 
2PYD

>  <ResidueNumber>  (122) 
998

>  <InChI>  (122) 
InChI=1S/C6H12O6/c7-1-2-3(8)4(9)5(10)6(11)12-2/h2-11H,1H2/t2-,3-,4+,5-,6+/m1/s1

>  <InChIKey>  (122) 
WQZGKKKJIJFFOK-DVKNGEFBSA-N

>  <SMILES>  (122) 
C([C@@H]1[C@H]([C@@H]([C@H]([C@H](O1)O)O)O)O)O

>  <MissingHeavyAtoms>  (122) 
0

>  <Model>  (122) 
1

>  <AltIds>  (122) 


>  <pKI>  (122) 
2.74

>  <ChemblID>  (122) 
-

>  <standardized_canonical_smiles>  (122) 
OC[C@H]1O[C@H](O)[C@H](O)[C@@H](O)[C@@H]1O

$$$$
2SKE_GLC_A_998
     RDKit          3D

 12 12  0  0  0  0  0  0  0  0999 V2000
   33.5390   22.8050   27.9080 C   0  0  0  0  0  0  0  0  0  0  0  0
   33.7850   23.0740   26.3670 C   0  0  0  0  0  0  0  0  0  0  0  0
   32.6320   22.4280   25.5150 C   0  0  0  0  0  0  0  0  0  0  0  0
   32.4280   20.9320   25.8770 C   0  0  0  0  0  0  0  0  0  0  0  0
   32.2550   20.7720   27.4550 C   0  0  0  0  0  0  0  0  0  0  0  0
   32.1810   19.3340   27.8530 C   0  0  0  0  0  0  0  0  0  0  0  0
   32.4390   23.5660   28.4500 O   0  0  0  0  0  0  0  0  0  0  0  0
   33.8510   24.4510   26.1090 O   0  0  0  0  0  0  0  0  0  0  0  0
   32.8960   22.5270   24.1380 O   0  0  0  0  0  0  0  0  0  0  0  0
   31.3010   20.4020   25.2080 O   0  0  0  0  0  0  0  0  0  0  0  0
   33.3920   21.3720   28.1540 O   0  0  0  0  0  0  0  0  0  0  0  0
   33.2910   18.6290   27.3120 O   0  0  0  0  0  0  0  0  0  0  0  0
  2  1  1  0
  7  1  1  0
 11  1  1  0
  3  2  1  0
  8  2  1  0
  4  3  1  0
  9  3  1  0
  5  4  1  0
 10  4  1  0
  6  5  1  0
 11  5  1  0
 12  6  1  0
A    1
C1
A    2
C2
A    3
C3
A    4
C4
A    5
C5
A    6
C6
A    7
O1
A    8
O2
A    9
O3
A   10
O4
A   11
O5
A   12
O6
M  END
>  <Id>  (123) 
2SKE_GLC_A_998

>  <ChainId>  (123) 
A

>  <AsymId>  (123) 
B

>  <SeqNum>  (123) 
998

>  <Name>  (123) 
ALPHA-D-GLUCOSE

>  <SystematicName>  (123) 
(2S,3R,4S,5S,6R)-6-(hydroxymethyl)oxane-2,3,4,5-tetrol

>  <Synonyms>  (123) 


>  <Type>  (123) 
SACCHARIDE

>  <Formula>  (123) 
C6 H12 O6

>  <ObservedFormula>  (123) 
C6 O6

>  <MolecularWeight>  (123) 
180.156

>  <ModifiedDate>  (123) 
2011-06-04

>  <Parent>  (123) 


>  <OneLetterCode>  (123) 


>  <SubcomponentList>  (123) 


>  <AmbiguousFlag>  (123) 
N

>  <InsertionCode>  (123) 


>  <InstanceId>  (123) 
2SKE_GLC_A_998

>  <ChemCompId>  (123) 
GLC

>  <PdbId>  (123) 
2SKE

>  <ResidueNumber>  (123) 
998

>  <InChI>  (123) 
InChI=1S/C6H12O6/c7-1-2-3(8)4(9)5(10)6(11)12-2/h2-11H,1H2/t2-,3-,4+,5-,6+/m1/s1

>  <InChIKey>  (123) 
WQZGKKKJIJFFOK-DVKNGEFBSA-N

>  <SMILES>  (123) 
C([C@@H]1[C@H]([C@@H]([C@H]([C@H](O1)O)O)O)O)O

>  <MissingHeavyAtoms>  (123) 
0

>  <Model>  (123) 
1

>  <AltIds>  (123) 


>  <pKI>  (123) 
2.74

>  <ChemblID>  (123) 
-

>  <standardized_canonical_smiles>  (123) 
OC[C@H]1O[C@H](O)[C@H](O)[C@@H](O)[C@@H]1O

$$$$
5GPB_GLC_A_907
     RDKit          3D

 11 12  0  0  0  0  0  0  0  0999 V2000
   68.1820   17.2660   42.3220 C   0  0  0  0  0  0  0  0  0  0  0  0
   69.5780   16.8480   41.9010 C   0  0  0  0  0  0  0  0  0  0  0  0
   69.5400   15.5800   41.0930 C   0  0  0  0  0  0  0  0  0  0  0  0
   68.8620   14.4520   41.8640 C   0  0  0  0  0  0  0  0  0  0  0  0
   67.4510   14.9180   42.3650 C   0  0  0  0  0  0  0  0  0  0  0  0
   66.7160   13.9740   43.3540 C   0  0  0  0  0  0  0  0  0  0  0  0
   70.1210   17.8630   41.0810 O   0  0  0  0  0  0  0  0  0  0  0  0
   70.8620   15.1810   40.7530 O   0  0  0  0  0  0  0  0  0  0  0  0
   68.7860   13.3710   40.9170 O   0  0  0  0  0  0  0  0  0  0  0  0
   67.5410   16.1970   43.0440 O   0  0  0  0  0  0  0  0  0  0  0  0
   67.0830   14.2980   44.7340 O   0  0  0  0  0  0  0  0  0  0  0  0
  2  1  1  0
 10  1  1  0
  1  9  1  0
  3  2  1  0
  7  2  1  0
  4  3  1  0
  8  3  1  0
  5  4  1  0
  9  4  1  0
  6  5  1  0
 10  5  1  0
 11  6  1  0
A    1
C1
A    2
C2
A    3
C3
A    4
C4
A    5
C5
A    6
C6
A    7
O2
A    8
O3
A    9
O4
A   10
O5
A   11
O6
M  END
>  <Id>  (124) 
5GPB_GLC_A_907

>  <ChainId>  (124) 
A

>  <AsymId>  (124) 
H

>  <SeqNum>  (124) 
907

>  <Name>  (124) 
ALPHA-D-GLUCOSE

>  <SystematicName>  (124) 
(2S,3R,4S,5S,6R)-6-(hydroxymethyl)oxane-2,3,4,5-tetrol

>  <Synonyms>  (124) 


>  <Type>  (124) 
SACCHARIDE

>  <Formula>  (124) 
C6 H12 O6

>  <ObservedFormula>  (124) 
C6 O5

>  <MolecularWeight>  (124) 
180.156

>  <ModifiedDate>  (124) 
2011-06-04

>  <Parent>  (124) 


>  <OneLetterCode>  (124) 


>  <SubcomponentList>  (124) 


>  <AmbiguousFlag>  (124) 
N

>  <InsertionCode>  (124) 


>  <InstanceId>  (124) 
5GPB_GLC_A_907

>  <ChemCompId>  (124) 
GLC

>  <PdbId>  (124) 
5GPB

>  <ResidueNumber>  (124) 
907

>  <InChI>  (124) 
InChI=1S/C6H12O6/c7-1-2-3(8)4(9)5(10)6(11)12-2/h2-11H,1H2/t2-,3-,4+,5-,6+/m1/s1

>  <InChIKey>  (124) 
WQZGKKKJIJFFOK-DVKNGEFBSA-N

>  <SMILES>  (124) 
C([C@@H]1[C@H]([C@@H]([C@H]([C@H](O1)O)O)O)O)O

>  <MissingHeavyAtoms>  (124) 
1

>  <Model>  (124) 
1

>  <AltIds>  (124) 


>  <pKI>  (124) 
2.74

>  <ChemblID>  (124) 
-

>  <standardized_canonical_smiles>  (124) 
OC[C@H]1O[C@H](O)[C@H](O)[C@@H](O)[C@@H]1O

$$$$
1E1Y_GLC_A_998
     RDKit          3D

 12 12  0  0  0  0  0  0  0  0999 V2000
   32.8930   22.7650   27.7070 C   0  0  0  0  0  0  0  0  0  0  0  0
   32.9820   23.0310   26.1830 C   0  0  0  0  0  0  0  0  0  0  0  0
   31.7780   22.3790   25.4260 C   0  0  0  0  0  0  0  0  0  0  0  0
   31.5180   20.9160   25.8640 C   0  0  0  0  0  0  0  0  0  0  0  0
   31.3950   20.8280   27.3950 C   0  0  0  0  0  0  0  0  0  0  0  0
   31.1630   19.3680   27.8060 C   0  0  0  0  0  0  0  0  0  0  0  0
   31.7810   23.5150   28.1900 O   0  0  0  0  0  0  0  0  0  0  0  0
   32.9240   24.4470   25.9960 O   0  0  0  0  0  0  0  0  0  0  0  0
   31.9840   22.3710   24.0400 O   0  0  0  0  0  0  0  0  0  0  0  0
   30.3310   20.4420   25.2860 O   0  0  0  0  0  0  0  0  0  0  0  0
   32.6320   21.3500   27.9470 O   0  0  0  0  0  0  0  0  0  0  0  0
   32.0520   18.5180   27.1250 O   0  0  0  0  0  0  0  0  0  0  0  0
  2  1  1  0
  7  1  1  0
 11  1  1  0
  3  2  1  0
  8  2  1  0
  4  3  1  0
  9  3  1  0
  5  4  1  0
 10  4  1  0
  6  5  1  0
 11  5  1  0
 12  6  1  0
A    1
C1
A    2
C2
A    3
C3
A    4
C4
A    5
C5
A    6
C6
A    7
O1
A    8
O2
A    9
O3
A   10
O4
A   11
O5
A   12
O6
M  END
>  <Id>  (125) 
1E1Y_GLC_A_998

>  <ChainId>  (125) 
A

>  <AsymId>  (125) 
D

>  <SeqNum>  (125) 
998

>  <Name>  (125) 
ALPHA-D-GLUCOSE

>  <SystematicName>  (125) 
(2S,3R,4S,5S,6R)-6-(hydroxymethyl)oxane-2,3,4,5-tetrol

>  <Synonyms>  (125) 


>  <Type>  (125) 
SACCHARIDE

>  <Formula>  (125) 
C6 H12 O6

>  <ObservedFormula>  (125) 
C6 O6

>  <MolecularWeight>  (125) 
180.156

>  <ModifiedDate>  (125) 
2011-06-04

>  <Parent>  (125) 


>  <OneLetterCode>  (125) 


>  <SubcomponentList>  (125) 


>  <AmbiguousFlag>  (125) 
N

>  <InsertionCode>  (125) 


>  <InstanceId>  (125) 
1E1Y_GLC_A_998

>  <ChemCompId>  (125) 
GLC

>  <PdbId>  (125) 
1E1Y

>  <ResidueNumber>  (125) 
998

>  <InChI>  (125) 
InChI=1S/C6H12O6/c7-1-2-3(8)4(9)5(10)6(11)12-2/h2-11H,1H2/t2-,3-,4+,5-,6+/m1/s1

>  <InChIKey>  (125) 
WQZGKKKJIJFFOK-DVKNGEFBSA-N

>  <SMILES>  (125) 
C([C@@H]1[C@H]([C@@H]([C@H]([C@H](O1)O)O)O)O)O

>  <MissingHeavyAtoms>  (125) 
0

>  <Model>  (125) 
1

>  <AltIds>  (125) 


>  <pKI>  (125) 
2.74

>  <ChemblID>  (125) 
-

>  <standardized_canonical_smiles>  (125) 
OC[C@H]1O[C@H](O)[C@H](O)[C@@H](O)[C@@H]1O

$$$$
1H5U_GLC_A_998
     RDKit          3D

 12 12  0  0  0  0  0  0  0  0999 V2000
   33.7950   22.7870   27.8640 C   0  0  0  0  0  0  0  0  0  0  0  0
   34.0520   23.0530   26.3230 C   0  0  0  0  0  0  0  0  0  0  0  0
   32.8720   22.4550   25.4530 C   0  0  0  0  0  0  0  0  0  0  0  0
   32.5960   20.9730   25.8150 C   0  0  0  0  0  0  0  0  0  0  0  0
   32.4510   20.7810   27.3730 C   0  0  0  0  0  0  0  0  0  0  0  0
   32.3750   19.2950   27.7490 C   0  0  0  0  0  0  0  0  0  0  0  0
   32.6400   23.4750   28.3300 O   0  0  0  0  0  0  0  0  0  0  0  0
   34.1770   24.4340   26.0560 O   0  0  0  0  0  0  0  0  0  0  0  0
   33.1960   22.5190   24.0820 O   0  0  0  0  0  0  0  0  0  0  0  0
   31.4080   20.5530   25.1860 O   0  0  0  0  0  0  0  0  0  0  0  0
   33.6070   21.3720   28.0450 O   0  0  0  0  0  0  0  0  0  0  0  0
   33.4740   18.5610   27.2510 O   0  0  0  0  0  0  0  0  0  0  0  0
  2  1  1  0
  7  1  1  0
 11  1  1  0
  3  2  1  0
  8  2  1  0
  4  3  1  0
  9  3  1  0
  5  4  1  0
 10  4  1  0
  6  5  1  0
 11  5  1  0
 12  6  1  0
A    1
C1
A    2
C2
A    3
C3
A    4
C4
A    5
C5
A    6
C6
A    7
O1
A    8
O2
A    9
O3
A   10
O4
A   11
O5
A   12
O6
M  END
>  <Id>  (126) 
1H5U_GLC_A_998

>  <ChainId>  (126) 
A

>  <AsymId>  (126) 
C

>  <SeqNum>  (126) 
998

>  <Name>  (126) 
ALPHA-D-GLUCOSE

>  <SystematicName>  (126) 
(2S,3R,4S,5S,6R)-6-(hydroxymethyl)oxane-2,3,4,5-tetrol

>  <Synonyms>  (126) 


>  <Type>  (126) 
SACCHARIDE

>  <Formula>  (126) 
C6 H12 O6

>  <ObservedFormula>  (126) 
C6 O6

>  <MolecularWeight>  (126) 
180.156

>  <ModifiedDate>  (126) 
2011-06-04

>  <Parent>  (126) 


>  <OneLetterCode>  (126) 


>  <SubcomponentList>  (126) 


>  <AmbiguousFlag>  (126) 
N

>  <InsertionCode>  (126) 


>  <InstanceId>  (126) 
1H5U_GLC_A_998

>  <ChemCompId>  (126) 
GLC

>  <PdbId>  (126) 
1H5U

>  <ResidueNumber>  (126) 
998

>  <InChI>  (126) 
InChI=1S/C6H12O6/c7-1-2-3(8)4(9)5(10)6(11)12-2/h2-11H,1H2/t2-,3-,4+,5-,6+/m1/s1

>  <InChIKey>  (126) 
WQZGKKKJIJFFOK-DVKNGEFBSA-N

>  <SMILES>  (126) 
C([C@@H]1[C@H]([C@@H]([C@H]([C@H](O1)O)O)O)O)O

>  <MissingHeavyAtoms>  (126) 
0

>  <Model>  (126) 
1

>  <AltIds>  (126) 


>  <pKI>  (126) 
2.74

>  <ChemblID>  (126) 
-

>  <standardized_canonical_smiles>  (126) 
OC[C@H]1O[C@H](O)[C@H](O)[C@@H](O)[C@@H]1O

$$$$
1LWO_GLC_A_998
     RDKit          3D

 12 12  0  0  0  0  0  0  0  0999 V2000
   33.6180   22.8250   27.8840 C   0  0  0  0  0  0  0  0  0  0  0  0
   33.8100   23.1030   26.3610 C   0  0  0  0  0  0  0  0  0  0  0  0
   32.6190   22.5050   25.5470 C   0  0  0  0  0  0  0  0  0  0  0  0
   32.3040   21.0440   25.9250 C   0  0  0  0  0  0  0  0  0  0  0  0
   32.1460   20.9170   27.4990 C   0  0  0  0  0  0  0  0  0  0  0  0
   31.9310   19.4890   27.8770 C   0  0  0  0  0  0  0  0  0  0  0  0
   32.4820   23.5590   28.2690 O   0  0  0  0  0  0  0  0  0  0  0  0
   33.8670   24.5040   26.1520 O   0  0  0  0  0  0  0  0  0  0  0  0
   32.9350   22.5190   24.1900 O   0  0  0  0  0  0  0  0  0  0  0  0
   31.1100   20.6680   25.2680 O   0  0  0  0  0  0  0  0  0  0  0  0
   33.3700   21.4110   28.1200 O   0  0  0  0  0  0  0  0  0  0  0  0
   33.0820   18.7820   27.4720 O   0  0  0  0  0  0  0  0  0  0  0  0
  2  1  1  0
  7  1  1  0
 11  1  1  0
  3  2  1  0
  8  2  1  0
  4  3  1  0
  9  3  1  0
  5  4  1  0
 10  4  1  0
  6  5  1  0
 11  5  1  0
 12  6  1  0
A    1
C1
A    2
C2
A    3
C3
A    4
C4
A    5
C5
A    6
C6
A    7
O1
A    8
O2
A    9
O3
A   10
O4
A   11
O5
A   12
O6
M  END
>  <Id>  (127) 
1LWO_GLC_A_998

>  <ChainId>  (127) 
A

>  <AsymId>  (127) 
B

>  <SeqNum>  (127) 
998

>  <Name>  (127) 
ALPHA-D-GLUCOSE

>  <SystematicName>  (127) 
(2S,3R,4S,5S,6R)-6-(hydroxymethyl)oxane-2,3,4,5-tetrol

>  <Synonyms>  (127) 


>  <Type>  (127) 
SACCHARIDE

>  <Formula>  (127) 
C6 H12 O6

>  <ObservedFormula>  (127) 
C6 O6

>  <MolecularWeight>  (127) 
180.156

>  <ModifiedDate>  (127) 
2011-06-04

>  <Parent>  (127) 


>  <OneLetterCode>  (127) 


>  <SubcomponentList>  (127) 


>  <AmbiguousFlag>  (127) 
N

>  <InsertionCode>  (127) 


>  <InstanceId>  (127) 
1LWO_GLC_A_998

>  <ChemCompId>  (127) 
GLC

>  <PdbId>  (127) 
1LWO

>  <ResidueNumber>  (127) 
998

>  <InChI>  (127) 
InChI=1S/C6H12O6/c7-1-2-3(8)4(9)5(10)6(11)12-2/h2-11H,1H2/t2-,3-,4+,5-,6+/m1/s1

>  <InChIKey>  (127) 
WQZGKKKJIJFFOK-DVKNGEFBSA-N

>  <SMILES>  (127) 
C([C@@H]1[C@H]([C@@H]([C@H]([C@H](O1)O)O)O)O)O

>  <MissingHeavyAtoms>  (127) 
0

>  <Model>  (127) 
1

>  <AltIds>  (127) 


>  <pKI>  (127) 
2.74

>  <ChemblID>  (127) 
-

>  <standardized_canonical_smiles>  (127) 
OC[C@H]1O[C@H](O)[C@H](O)[C@@H](O)[C@@H]1O

$$$$
2GPA_GLC_A_998
     RDKit          3D

 12 12  0  0  0  0  0  0  0  0999 V2000
   32.8950   22.7810   27.9010 C   0  0  0  0  0  0  0  0  0  0  0  0
   33.1110   23.0660   26.3510 C   0  0  0  0  0  0  0  0  0  0  0  0
   31.9740   22.4140   25.5150 C   0  0  0  0  0  0  0  0  0  0  0  0
   31.7600   20.9340   25.8740 C   0  0  0  0  0  0  0  0  0  0  0  0
   31.5040   20.7630   27.4200 C   0  0  0  0  0  0  0  0  0  0  0  0
   31.3430   19.3150   27.7790 C   0  0  0  0  0  0  0  0  0  0  0  0
   31.8340   23.6030   28.4130 O   0  0  0  0  0  0  0  0  0  0  0  0
   33.0970   24.4710   26.1570 O   0  0  0  0  0  0  0  0  0  0  0  0
   32.1780   22.4630   24.1250 O   0  0  0  0  0  0  0  0  0  0  0  0
   30.6340   20.4660   25.1470 O   0  0  0  0  0  0  0  0  0  0  0  0
   32.6410   21.3370   28.1380 O   0  0  0  0  0  0  0  0  0  0  0  0
   32.4060   18.6410   27.1680 O   0  0  0  0  0  0  0  0  0  0  0  0
  2  1  1  0
  7  1  1  0
 11  1  1  0
  3  2  1  0
  8  2  1  0
  4  3  1  0
  9  3  1  0
  5  4  1  0
 10  4  1  0
  6  5  1  0
 11  5  1  0
 12  6  1  0
A    1
C1
A    2
C2
A    3
C3
A    4
C4
A    5
C5
A    6
C6
A    7
O1
A    8
O2
A    9
O3
A   10
O4
A   11
O5
A   12
O6
M  END
>  <Id>  (128) 
2GPA_GLC_A_998

>  <ChainId>  (128) 
A

>  <AsymId>  (128) 
B

>  <SeqNum>  (128) 
998

>  <Name>  (128) 
ALPHA-D-GLUCOSE

>  <SystematicName>  (128) 
(2S,3R,4S,5S,6R)-6-(hydroxymethyl)oxane-2,3,4,5-tetrol

>  <Synonyms>  (128) 


>  <Type>  (128) 
SACCHARIDE

>  <Formula>  (128) 
C6 H12 O6

>  <ObservedFormula>  (128) 
C6 O6

>  <MolecularWeight>  (128) 
180.156

>  <ModifiedDate>  (128) 
2011-06-04

>  <Parent>  (128) 


>  <OneLetterCode>  (128) 


>  <SubcomponentList>  (128) 


>  <AmbiguousFlag>  (128) 
N

>  <InsertionCode>  (128) 


>  <InstanceId>  (128) 
2GPA_GLC_A_998

>  <ChemCompId>  (128) 
GLC

>  <PdbId>  (128) 
2GPA

>  <ResidueNumber>  (128) 
998

>  <InChI>  (128) 
InChI=1S/C6H12O6/c7-1-2-3(8)4(9)5(10)6(11)12-2/h2-11H,1H2/t2-,3-,4+,5-,6+/m1/s1

>  <InChIKey>  (128) 
WQZGKKKJIJFFOK-DVKNGEFBSA-N

>  <SMILES>  (128) 
C([C@@H]1[C@H]([C@@H]([C@H]([C@H](O1)O)O)O)O)O

>  <MissingHeavyAtoms>  (128) 
0

>  <Model>  (128) 
1

>  <AltIds>  (128) 


>  <pKI>  (128) 
2.74

>  <ChemblID>  (128) 
-

>  <standardized_canonical_smiles>  (128) 
OC[C@H]1O[C@H](O)[C@H](O)[C@@H](O)[C@@H]1O

$$$$
2GPB_GLC_A_910
     RDKit          3D

 12 12  0  0  0  0  0  0  0  0999 V2000
   33.6700   22.6900   27.7750 C   0  0  0  0  0  0  0  0  0  0  0  0
   33.8800   22.9230   26.2470 C   0  0  0  0  0  0  0  0  0  0  0  0
   32.7030   22.3360   25.4280 C   0  0  0  0  0  0  0  0  0  0  0  0
   32.4520   20.8780   25.8610 C   0  0  0  0  0  0  0  0  0  0  0  0
   32.1820   20.8370   27.4160 C   0  0  0  0  0  0  0  0  0  0  0  0
   31.9470   19.4280   27.9240 C   0  0  0  0  0  0  0  0  0  0  0  0
   32.6490   23.5380   28.2220 O   0  0  0  0  0  0  0  0  0  0  0  0
   33.9590   24.3110   26.0160 O   0  0  0  0  0  0  0  0  0  0  0  0
   32.9850   22.4030   24.0560 O   0  0  0  0  0  0  0  0  0  0  0  0
   31.3820   20.2940   25.1520 O   0  0  0  0  0  0  0  0  0  0  0  0
   33.3190   21.3500   28.1200 O   0  0  0  0  0  0  0  0  0  0  0  0
   33.0300   18.6180   27.4860 O   0  0  0  0  0  0  0  0  0  0  0  0
  2  1  1  0
  7  1  1  0
 11  1  1  0
  3  2  1  0
  8  2  1  0
  4  3  1  0
  9  3  1  0
  5  4  1  0
 10  4  1  0
  6  5  1  0
 11  5  1  0
 12  6  1  0
A    1
C1
A    2
C2
A    3
C3
A    4
C4
A    5
C5
A    6
C6
A    7
O1
A    8
O2
A    9
O3
A   10
O4
A   11
O5
A   12
O6
M  END
>  <Id>  (129) 
2GPB_GLC_A_910

>  <ChainId>  (129) 
A

>  <AsymId>  (129) 
B

>  <SeqNum>  (129) 
910

>  <Name>  (129) 
ALPHA-D-GLUCOSE

>  <SystematicName>  (129) 
(2S,3R,4S,5S,6R)-6-(hydroxymethyl)oxane-2,3,4,5-tetrol

>  <Synonyms>  (129) 


>  <Type>  (129) 
SACCHARIDE

>  <Formula>  (129) 
C6 H12 O6

>  <ObservedFormula>  (129) 
C6 O6

>  <MolecularWeight>  (129) 
180.156

>  <ModifiedDate>  (129) 
2011-06-04

>  <Parent>  (129) 


>  <OneLetterCode>  (129) 


>  <SubcomponentList>  (129) 


>  <AmbiguousFlag>  (129) 
N

>  <InsertionCode>  (129) 


>  <InstanceId>  (129) 
2GPB_GLC_A_910

>  <ChemCompId>  (129) 
GLC

>  <PdbId>  (129) 
2GPB

>  <ResidueNumber>  (129) 
910

>  <InChI>  (129) 
InChI=1S/C6H12O6/c7-1-2-3(8)4(9)5(10)6(11)12-2/h2-11H,1H2/t2-,3-,4+,5-,6+/m1/s1

>  <InChIKey>  (129) 
WQZGKKKJIJFFOK-DVKNGEFBSA-N

>  <SMILES>  (129) 
C([C@@H]1[C@H]([C@@H]([C@H]([C@H](O1)O)O)O)O)O

>  <MissingHeavyAtoms>  (129) 
0

>  <Model>  (129) 
1

>  <AltIds>  (129) 


>  <pKI>  (129) 
2.74

>  <ChemblID>  (129) 
-

>  <standardized_canonical_smiles>  (129) 
OC[C@H]1O[C@H](O)[C@H](O)[C@@H](O)[C@@H]1O

$$$$
2SKD_GLC_A_998
     RDKit          3D

 12 12  0  0  0  0  0  0  0  0999 V2000
   33.6120   22.7450   27.9150 C   0  0  0  0  0  0  0  0  0  0  0  0
   33.8760   22.9820   26.4050 C   0  0  0  0  0  0  0  0  0  0  0  0
   32.7410   22.3660   25.5300 C   0  0  0  0  0  0  0  0  0  0  0  0
   32.5130   20.8930   25.9110 C   0  0  0  0  0  0  0  0  0  0  0  0
   32.2980   20.7560   27.4630 C   0  0  0  0  0  0  0  0  0  0  0  0
   32.2260   19.3470   27.9080 C   0  0  0  0  0  0  0  0  0  0  0  0
   32.5070   23.4790   28.3730 O   0  0  0  0  0  0  0  0  0  0  0  0
   33.9910   24.3430   26.1250 O   0  0  0  0  0  0  0  0  0  0  0  0
   33.0260   22.4280   24.1210 O   0  0  0  0  0  0  0  0  0  0  0  0
   31.3710   20.4220   25.2100 O   0  0  0  0  0  0  0  0  0  0  0  0
   33.3790   21.3470   28.1990 O   0  0  0  0  0  0  0  0  0  0  0  0
   33.1590   18.5250   27.2270 O   0  0  0  0  0  0  0  0  0  0  0  0
  2  1  1  0
  7  1  1  0
 11  1  1  0
  3  2  1  0
  8  2  1  0
  4  3  1  0
  9  3  1  0
  5  4  1  0
 10  4  1  0
  6  5  1  0
 11  5  1  0
 12  6  1  0
A    1
C1
A    2
C2
A    3
C3
A    4
C4
A    5
C5
A    6
C6
A    7
O1
A    8
O2
A    9
O3
A   10
O4
A   11
O5
A   12
O6
M  END
>  <Id>  (130) 
2SKD_GLC_A_998

>  <ChainId>  (130) 
A

>  <AsymId>  (130) 
B

>  <SeqNum>  (130) 
998

>  <Name>  (130) 
ALPHA-D-GLUCOSE

>  <SystematicName>  (130) 
(2S,3R,4S,5S,6R)-6-(hydroxymethyl)oxane-2,3,4,5-tetrol

>  <Synonyms>  (130) 


>  <Type>  (130) 
SACCHARIDE

>  <Formula>  (130) 
C6 H12 O6

>  <ObservedFormula>  (130) 
C6 O6

>  <MolecularWeight>  (130) 
180.156

>  <ModifiedDate>  (130) 
2011-06-04

>  <Parent>  (130) 


>  <OneLetterCode>  (130) 


>  <SubcomponentList>  (130) 


>  <AmbiguousFlag>  (130) 
N

>  <InsertionCode>  (130) 


>  <InstanceId>  (130) 
2SKD_GLC_A_998

>  <ChemCompId>  (130) 
GLC

>  <PdbId>  (130) 
2SKD

>  <ResidueNumber>  (130) 
998

>  <InChI>  (130) 
InChI=1S/C6H12O6/c7-1-2-3(8)4(9)5(10)6(11)12-2/h2-11H,1H2/t2-,3-,4+,5-,6+/m1/s1

>  <InChIKey>  (130) 
WQZGKKKJIJFFOK-DVKNGEFBSA-N

>  <SMILES>  (130) 
C([C@@H]1[C@H]([C@@H]([C@H]([C@H](O1)O)O)O)O)O

>  <MissingHeavyAtoms>  (130) 
0

>  <Model>  (130) 
1

>  <AltIds>  (130) 


>  <pKI>  (130) 
2.74

>  <ChemblID>  (130) 
-

>  <standardized_canonical_smiles>  (130) 
OC[C@H]1O[C@H](O)[C@H](O)[C@@H](O)[C@@H]1O

$$$$
1P2G_GLC_A_850
     RDKit          3D

 11 12  0  0  0  0  0  0  0  0999 V2000
   72.8510   15.7260   31.6570 C   0  0  0  0  0  0  0  0  0  0  0  0
   73.5360   17.0630   31.3080 C   0  0  0  0  0  0  0  0  0  0  0  0
   72.5470   18.2100   31.5750 C   0  0  0  0  0  0  0  0  0  0  0  0
   71.2830   17.9800   30.7590 C   0  0  0  0  0  0  0  0  0  0  0  0
   70.6690   16.6070   31.0650 C   0  0  0  0  0  0  0  0  0  0  0  0
   69.5060   16.2870   30.1370 C   0  0  0  0  0  0  0  0  0  0  0  0
   74.7080   17.2260   32.1130 O   0  0  0  0  0  0  0  0  0  0  0  0
   73.1230   19.4620   31.1920 O   0  0  0  0  0  0  0  0  0  0  0  0
   70.3310   19.0170   31.0530 O   0  0  0  0  0  0  0  0  0  0  0  0
   71.6630   15.5660   30.8710 O   0  0  0  0  0  0  0  0  0  0  0  0
   68.2550   16.6000   30.7470 O   0  0  0  0  0  0  0  0  0  0  0  0
  2  1  1  0
 10  1  1  0
  1  9  1  0
  3  2  1  0
  7  2  1  0
  4  3  1  0
  8  3  1  0
  5  4  1  0
  9  4  1  0
  6  5  1  0
 10  5  1  0
 11  6  1  0
A    1
C1
A    2
C2
A    3
C3
A    4
C4
A    5
C5
A    6
C6
A    7
O2
A    8
O3
A    9
O4
A   10
O5
A   11
O6
M  END
>  <Id>  (131) 
1P2G_GLC_A_850

>  <ChainId>  (131) 
A

>  <AsymId>  (131) 
I

>  <SeqNum>  (131) 
850

>  <Name>  (131) 
ALPHA-D-GLUCOSE

>  <SystematicName>  (131) 
(2S,3R,4S,5S,6R)-6-(hydroxymethyl)oxane-2,3,4,5-tetrol

>  <Synonyms>  (131) 


>  <Type>  (131) 
SACCHARIDE

>  <Formula>  (131) 
C6 H12 O6

>  <ObservedFormula>  (131) 
C6 O5

>  <MolecularWeight>  (131) 
180.156

>  <ModifiedDate>  (131) 
2011-06-04

>  <Parent>  (131) 


>  <OneLetterCode>  (131) 


>  <SubcomponentList>  (131) 


>  <AmbiguousFlag>  (131) 
N

>  <InsertionCode>  (131) 


>  <InstanceId>  (131) 
1P2G_GLC_A_850

>  <ChemCompId>  (131) 
GLC

>  <PdbId>  (131) 
1P2G

>  <ResidueNumber>  (131) 
850

>  <InChI>  (131) 
InChI=1S/C6H12O6/c7-1-2-3(8)4(9)5(10)6(11)12-2/h2-11H,1H2/t2-,3-,4+,5-,6+/m1/s1

>  <InChIKey>  (131) 
WQZGKKKJIJFFOK-DVKNGEFBSA-N

>  <SMILES>  (131) 
C([C@@H]1[C@H]([C@@H]([C@H]([C@H](O1)O)O)O)O)O

>  <MissingHeavyAtoms>  (131) 
1

>  <Model>  (131) 
1

>  <AltIds>  (131) 


>  <pKI>  (131) 
2.74

>  <ChemblID>  (131) 
-

>  <standardized_canonical_smiles>  (131) 
OC[C@H]1O[C@H](O)[C@H](O)[C@@H](O)[C@@H]1O

$$$$
1P2D_GLC_A_844
     RDKit          3D

 11 12  0  0  0  0  0  0  0  0999 V2000
   63.8980   20.2400   41.0640 C   0  0  0  0  0  0  0  0  0  0  0  0
   64.9000   20.5890   42.1660 C   0  0  0  0  0  0  0  0  0  0  0  0
   66.1350   19.6560   42.0620 C   0  0  0  0  0  0  0  0  0  0  0  0
   65.6530   18.2010   42.1610 C   0  0  0  0  0  0  0  0  0  0  0  0
   64.6510   17.9020   41.0010 C   0  0  0  0  0  0  0  0  0  0  0  0
   64.1060   16.5210   41.0700 C   0  0  0  0  0  0  0  0  0  0  0  0
   65.3100   21.9770   42.1000 O   0  0  0  0  0  0  0  0  0  0  0  0
   67.0650   19.9760   43.1230 O   0  0  0  0  0  0  0  0  0  0  0  0
   66.8590   17.3660   42.0230 O   0  0  0  0  0  0  0  0  0  0  0  0
   63.5480   18.8540   41.1080 O   0  0  0  0  0  0  0  0  0  0  0  0
   63.8130   15.9960   39.8000 O   0  0  0  0  0  0  0  0  0  0  0  0
  2  1  1  0
 10  1  1  0
  1  9  1  0
  3  2  1  0
  7  2  1  0
  4  3  1  0
  8  3  1  0
  5  4  1  0
  9  4  1  0
  6  5  1  0
 10  5  1  0
 11  6  1  0
A    1
C1
A    2
C2
A    3
C3
A    4
C4
A    5
C5
A    6
C6
A    7
O2
A    8
O3
A    9
O4
A   10
O5
A   11
O6
M  END
>  <Id>  (132) 
1P2D_GLC_A_844

>  <ChainId>  (132) 
A

>  <AsymId>  (132) 
C

>  <SeqNum>  (132) 
844

>  <Name>  (132) 
ALPHA-D-GLUCOSE

>  <SystematicName>  (132) 
(2S,3R,4S,5S,6R)-6-(hydroxymethyl)oxane-2,3,4,5-tetrol

>  <Synonyms>  (132) 


>  <Type>  (132) 
SACCHARIDE

>  <Formula>  (132) 
C6 H12 O6

>  <ObservedFormula>  (132) 
C6 O5

>  <MolecularWeight>  (132) 
180.156

>  <ModifiedDate>  (132) 
2011-06-04

>  <Parent>  (132) 


>  <OneLetterCode>  (132) 


>  <SubcomponentList>  (132) 


>  <AmbiguousFlag>  (132) 
N

>  <InsertionCode>  (132) 


>  <InstanceId>  (132) 
1P2D_GLC_A_844

>  <ChemCompId>  (132) 
GLC

>  <PdbId>  (132) 
1P2D

>  <ResidueNumber>  (132) 
844

>  <InChI>  (132) 
InChI=1S/C6H12O6/c7-1-2-3(8)4(9)5(10)6(11)12-2/h2-11H,1H2/t2-,3-,4+,5-,6+/m1/s1

>  <InChIKey>  (132) 
WQZGKKKJIJFFOK-DVKNGEFBSA-N

>  <SMILES>  (132) 
C([C@@H]1[C@H]([C@@H]([C@H]([C@H](O1)O)O)O)O)O

>  <MissingHeavyAtoms>  (132) 
1

>  <Model>  (132) 
1

>  <AltIds>  (132) 


>  <pKI>  (132) 
2.74

>  <ChemblID>  (132) 
-

>  <standardized_canonical_smiles>  (132) 
OC[C@H]1O[C@H](O)[C@H](O)[C@@H](O)[C@@H]1O

$$$$
2SKC_GLC_A_998
     RDKit          3D

 12 12  0  0  0  0  0  0  0  0999 V2000
   33.6020   22.7740   27.8970 C   0  0  0  0  0  0  0  0  0  0  0  0
   33.8150   23.0330   26.3950 C   0  0  0  0  0  0  0  0  0  0  0  0
   32.6450   22.4300   25.5520 C   0  0  0  0  0  0  0  0  0  0  0  0
   32.3890   20.9480   25.8860 C   0  0  0  0  0  0  0  0  0  0  0  0
   32.2710   20.7820   27.4380 C   0  0  0  0  0  0  0  0  0  0  0  0
   32.1780   19.3270   27.8060 C   0  0  0  0  0  0  0  0  0  0  0  0
   32.4710   23.4710   28.3890 O   0  0  0  0  0  0  0  0  0  0  0  0
   33.9260   24.4130   26.1450 O   0  0  0  0  0  0  0  0  0  0  0  0
   32.9190   22.4940   24.1600 O   0  0  0  0  0  0  0  0  0  0  0  0
   31.1970   20.4850   25.2250 O   0  0  0  0  0  0  0  0  0  0  0  0
   33.4410   21.3530   28.1040 O   0  0  0  0  0  0  0  0  0  0  0  0
   33.1080   18.5230   27.1130 O   0  0  0  0  0  0  0  0  0  0  0  0
  2  1  1  0
  7  1  1  0
 11  1  1  0
  3  2  1  0
  8  2  1  0
  4  3  1  0
  9  3  1  0
  5  4  1  0
 10  4  1  0
  6  5  1  0
 11  5  1  0
 12  6  1  0
A    1
C1
A    2
C2
A    3
C3
A    4
C4
A    5
C5
A    6
C6
A    7
O1
A    8
O2
A    9
O3
A   10
O4
A   11
O5
A   12
O6
M  END
>  <Id>  (133) 
2SKC_GLC_A_998

>  <ChainId>  (133) 
A

>  <AsymId>  (133) 
B

>  <SeqNum>  (133) 
998

>  <Name>  (133) 
ALPHA-D-GLUCOSE

>  <SystematicName>  (133) 
(2S,3R,4S,5S,6R)-6-(hydroxymethyl)oxane-2,3,4,5-tetrol

>  <Synonyms>  (133) 


>  <Type>  (133) 
SACCHARIDE

>  <Formula>  (133) 
C6 H12 O6

>  <ObservedFormula>  (133) 
C6 O6

>  <MolecularWeight>  (133) 
180.156

>  <ModifiedDate>  (133) 
2011-06-04

>  <Parent>  (133) 


>  <OneLetterCode>  (133) 


>  <SubcomponentList>  (133) 


>  <AmbiguousFlag>  (133) 
N

>  <InsertionCode>  (133) 


>  <InstanceId>  (133) 
2SKC_GLC_A_998

>  <ChemCompId>  (133) 
GLC

>  <PdbId>  (133) 
2SKC

>  <ResidueNumber>  (133) 
998

>  <InChI>  (133) 
InChI=1S/C6H12O6/c7-1-2-3(8)4(9)5(10)6(11)12-2/h2-11H,1H2/t2-,3-,4+,5-,6+/m1/s1

>  <InChIKey>  (133) 
WQZGKKKJIJFFOK-DVKNGEFBSA-N

>  <SMILES>  (133) 
C([C@@H]1[C@H]([C@@H]([C@H]([C@H](O1)O)O)O)O)O

>  <MissingHeavyAtoms>  (133) 
0

>  <Model>  (133) 
1

>  <AltIds>  (133) 


>  <pKI>  (133) 
2.74

>  <ChemblID>  (133) 
-

>  <standardized_canonical_smiles>  (133) 
OC[C@H]1O[C@H](O)[C@H](O)[C@@H](O)[C@@H]1O

$$$$
2FET_H53_A_998
     RDKit          3D

 19 20  0  0  0  0  0  0  0  0999 V2000
   33.1360   21.4850   28.2290 O   0  0  0  0  0  0  0  0  0  0  0  0
   32.1750   20.8350   27.3620 C   0  0  0  0  0  0  0  0  0  0  0  0
   32.5640   21.0030   25.8570 C   0  0  0  0  0  0  0  0  0  0  0  0
   32.6840   22.5050   25.5070 C   0  0  0  0  0  0  0  0  0  0  0  0
   33.7690   23.1220   26.4410 C   0  0  0  0  0  0  0  0  0  0  0  0
   33.2870   22.9100   27.9270 C   0  0  0  0  0  0  0  0  0  0  0  0
   34.2750   23.4720   28.9700 C   0  0  0  0  0  0  0  0  0  0  0  0
   33.7530   24.2100   30.0720 C   0  0  0  0  0  0  0  0  0  0  0  0
   32.3690   24.4020   30.1570 O   0  0  0  0  0  0  0  0  0  0  0  0
   34.6400   24.7340   31.0660 C   0  0  0  0  0  0  0  0  0  0  0  0
   36.0410   24.5140   30.9470 C   0  0  0  0  0  0  0  0  0  0  0  0
   36.5680   23.7770   29.8460 C   0  0  0  0  0  0  0  0  0  0  0  0
   37.9460   23.5720   29.7510 O   0  0  0  0  0  0  0  0  0  0  0  0
   35.6790   23.2590   28.8610 C   0  0  0  0  0  0  0  0  0  0  0  0
   33.8950   24.5160   26.1160 O   0  0  0  0  0  0  0  0  0  0  0  0
   33.0600   22.6460   24.1260 O   0  0  0  0  0  0  0  0  0  0  0  0
   31.5580   20.3870   25.0310 O   0  0  0  0  0  0  0  0  0  0  0  0
   32.0740   19.3330   27.7880 C   0  0  0  0  0  0  0  0  0  0  0  0
   33.2010   18.5970   27.2650 O   0  0  0  0  0  0  0  0  0  0  0  0
  2  1  1  0
  6  1  1  0
  3  2  1  0
 18  2  1  0
  4  3  1  0
 17  3  1  0
  5  4  1  0
 16  4  1  0
  6  5  1  0
 15  5  1  0
  7  6  1  0
  8  7  2  0
 14  7  1  0
  9  8  1  0
 10  8  1  0
 11 10  2  0
 12 11  1  0
 13 12  1  0
 14 12  2  0
 19 18  1  0
A    1
O5
A    2
C5
A    3
C4
A    4
C3
A    5
C2
A    6
C1
A    7
C7
A    8
C12
A    9
O12
A   10
C11
A   11
C10
A   12
C9
A   13
O9
A   14
C8
A   15
O2
A   16
O3
A   17
O4
A   18
C6
A   19
O6
M  END
>  <Id>  (134) 
2FET_H53_A_998

>  <ChainId>  (134) 
A

>  <AsymId>  (134) 
C

>  <SeqNum>  (134) 
998

>  <Name>  (134) 
2-(2,5-DIHYDROXYPHENYL)-6-(HYDROXYMETHYL)OXANE-3,4,5-TRIOL

>  <SystematicName>  (134) 
(2S,3R,4R,5S,6R)-2-(2,5-dihydroxyphenyl)-6-(hydroxymethyl)oxane-3,4,5-triol

>  <Synonyms>  (134) 


>  <Type>  (134) 
NON-POLYMER

>  <Formula>  (134) 
C12 H16 O7

>  <ObservedFormula>  (134) 
C12 O7

>  <MolecularWeight>  (134) 
272.251

>  <ModifiedDate>  (134) 
2011-06-04

>  <Parent>  (134) 


>  <OneLetterCode>  (134) 


>  <SubcomponentList>  (134) 


>  <AmbiguousFlag>  (134) 
N

>  <InsertionCode>  (134) 


>  <InstanceId>  (134) 
2FET_H53_A_998

>  <ChemCompId>  (134) 
H53

>  <PdbId>  (134) 
2FET

>  <ResidueNumber>  (134) 
998

>  <InChI>  (134) 
InChI=1S/C12H16O7/c13-4-8-9(16)10(17)11(18)12(19-8)6-3-5(14)1-2-7(6)15/h1-3,8-18H,4H2/t8-,9-,10+,11-,12+/m1/s1

>  <InChIKey>  (134) 
QRWWXASRKFWQRP-ZIQFBCGOSA-N

>  <SMILES>  (134) 
c1cc(c(cc1O)[C@H]2[C@@H]([C@H]([C@@H]([C@H](O2)CO)O)O)O)O

>  <MissingHeavyAtoms>  (134) 
0

>  <Model>  (134) 
1

>  <AltIds>  (134) 


>  <pKI>  (134) 
3.05

>  <ChemblID>  (134) 
-

>  <standardized_canonical_smiles>  (134) 
OC[C@H]1O[C@@H](c2cc(O)ccc2O)[C@H](O)[C@@H](O)[C@@H]1O

$$$$
2FF5_H53_A_998
     RDKit          3D

 19 20  0  0  0  0  0  0  0  0999 V2000
   33.6180   24.1650   30.0320 C   0  0  0  0  0  0  0  0  0  0  0  0
   36.4320   23.7830   29.7710 C   0  0  0  0  0  0  0  0  0  0  0  0
   34.5550   24.7410   31.0600 C   0  0  0  0  0  0  0  0  0  0  0  0
   35.5010   23.2140   28.7520 C   0  0  0  0  0  0  0  0  0  0  0  0
   32.5250   22.4300   25.4380 C   0  0  0  0  0  0  0  0  0  0  0  0
   33.6380   23.0340   26.3650 C   0  0  0  0  0  0  0  0  0  0  0  0
   33.1630   22.8270   27.8520 C   0  0  0  0  0  0  0  0  0  0  0  0
   33.7930   24.4360   26.0510 O   0  0  0  0  0  0  0  0  0  0  0  0
   32.0190   20.7610   27.2940 C   0  0  0  0  0  0  0  0  0  0  0  0
   37.6310   23.6140   29.6510 O   0  0  0  0  0  0  0  0  0  0  0  0
   32.3880   20.9250   25.7880 C   0  0  0  0  0  0  0  0  0  0  0  0
   35.8990   24.5540   30.9310 C   0  0  0  0  0  0  0  0  0  0  0  0
   31.9120   19.2720   27.7050 C   0  0  0  0  0  0  0  0  0  0  0  0
   31.3610   20.3130   24.9800 O   0  0  0  0  0  0  0  0  0  0  0  0
   32.9990   21.4030   28.1580 O   0  0  0  0  0  0  0  0  0  0  0  0
   32.8910   22.5720   24.0500 O   0  0  0  0  0  0  0  0  0  0  0  0
   32.4020   24.3340   30.1550 O   0  0  0  0  0  0  0  0  0  0  0  0
   34.1500   23.3900   28.8610 C   0  0  0  0  0  0  0  0  0  0  0  0
   33.1030   18.5800   27.2800 O   0  0  0  0  0  0  0  0  0  0  0  0
 13 19  1  0
 15  7  1  0
 15  9  1  0
  6  7  1  0
  1 17  1  0
  2 10  1  0
  9 13  1  0
  6  8  1  0
 18  1  2  0
  7 18  1  0
  2  4  2  0
 11  5  1  0
 12  2  1  0
  5  6  1  0
 11 14  1  0
  5 16  1  0
  1  3  1  0
  9 11  1  0
  3 12  2  0
 18  4  1  0
A    1
C12
A    2
C9
A    3
C11
A    4
C8
A    5
C3
A    6
C2
A    7
C1
A    8
O2
A    9
C5
A   10
O9
A   11
C4
A   12
C10
A   13
C6
A   14
O4
A   15
O5
A   16
O3
A   17
O12
A   18
C7
A   19
O6
M  END
>  <InstanceId>  (135) 
2FF5_H53

>  <ChemCompId>  (135) 
H53

>  <PdbId>  (135) 
2FF5

>  <ChainId>  (135) 
A

>  <ResidueNumber>  (135) 
998

>  <InsertionCode>  (135) 
null

>  <Model>  (135) 
1

>  <AltIds>  (135) 


>  <MissingHeavyAtoms>  (135) 
0

>  <ObservedFormula>  (135) 
C12 O7

>  <AsymId>  (135) 
C

>  <SeqNum>  (135) 
998

>  <Name>  (135) 
2-(2,5-DIHYDROXYPHENYL)-6-(HYDROXYMETHYL)OXANE-3,4,5-TRIOL

>  <SystematicName>  (135) 
(2S,3R,4R,5S,6R)-2-(2,5-dihydroxyphenyl)-6-(hydroxymethyl)oxane-3,4,5-triol

>  <Synonyms>  (135) 


>  <Type>  (135) 
NON-POLYMER

>  <Formula>  (135) 
C12 H16 O7

>  <MolecularWeight>  (135) 
272.251

>  <ModifiedDate>  (135) 
2011-06-04

>  <Parent>  (135) 


>  <OneLetterCode>  (135) 


>  <SubcomponentList>  (135) 


>  <AmbiguousFlag>  (135) 
N

>  <InChI>  (135) 
InChI=1S/C12H16O7/c13-4-8-9(16)10(17)11(18)12(19-8)6-3-5(14)1-2-7(6)15/h1-3,8-18H,4H2/t8-,9-,10+,11-,12+/m1/s1

>  <InChIKey>  (135) 
QRWWXASRKFWQRP-ZIQFBCGOSA-N

>  <SMILES>  (135) 
c1cc(c(cc1O)[C@H]2[C@@H]([C@H]([C@@H]([C@H](O2)CO)O)O)O)O

>  <pKI>  (135) 
3.05

>  <ChemblID>  (135) 
-

>  <standardized_canonical_smiles>  (135) 
OC[C@H]1O[C@@H](c2cc(O)ccc2O)[C@H](O)[C@@H](O)[C@@H]1O

$$$$
6F3R_CKZ_A_902
     RDKit          3D

 29 33  0  0  0  0  0  0  0  0999 V2000
   33.6220   21.5650   28.1710 O   0  0  0  0  0  0  0  0  0  0  0  0
   32.4590   21.0170   27.5030 C   0  0  0  0  0  0  0  0  0  0  0  0
   32.5910   21.2100   25.9510 C   0  0  0  0  0  0  0  0  0  0  0  0
   32.8460   22.6590   25.6000 C   0  0  0  0  0  0  0  0  0  0  0  0
   33.9900   23.2310   26.4550 C   0  0  0  0  0  0  0  0  0  0  0  0
   33.7410   22.9690   27.9440 C   0  0  0  0  0  0  0  0  0  0  0  0
   34.8760   23.4670   28.7850 C   0  0  0  0  0  0  0  0  0  0  0  0
   34.1610   24.6430   26.2320 O   0  0  0  0  0  0  0  0  0  0  0  0
   33.1500   22.7560   24.2020 O   0  0  0  0  0  0  0  0  0  0  0  0
   31.3910   20.7440   25.3010 O   0  0  0  0  0  0  0  0  0  0  0  0
   32.3630   19.5740   27.9220 C   0  0  0  0  0  0  0  0  0  0  0  0
   33.3310   18.7310   27.2710 O   0  0  0  0  0  0  0  0  0  0  0  0
   34.7480   24.0820   29.9840 N   0  0  0  0  0  0  0  0  0  0  0  0
   35.9990   24.3640   30.4450 C   0  0  0  0  0  0  0  0  0  0  0  0
   36.8800   23.9580   29.5550 N   0  0  0  0  0  0  0  0  0  0  0  0
   36.1730   23.3910   28.4970 N   0  0  0  0  0  0  0  0  0  0  0  0
   36.2630   25.0260   31.7300 C   0  0  0  0  0  0  0  0  0  0  0  0
   35.2240   25.0840   32.6580 C   0  0  0  0  0  0  0  0  0  0  0  0
   35.3720   25.6980   33.8980 C   0  0  0  0  0  0  0  0  0  0  0  0
   36.5930   26.2220   34.2230 C   0  0  0  0  0  0  0  0  0  0  0  0
   37.6710   26.1460   33.3220 C   0  0  0  0  0  0  0  0  0  0  0  0
   37.5200   25.5440   32.0750 C   0  0  0  0  0  0  0  0  0  0  0  0
   37.0260   26.8870   35.4500 C   0  0  0  0  0  0  0  0  0  0  0  0
   38.3640   27.2440   35.2950 C   0  0  0  0  0  0  0  0  0  0  0  0
   38.8700   26.8200   33.9280 C   0  0  0  0  0  0  0  0  0  0  0  0
   36.3480   27.1340   36.6430 C   0  0  0  0  0  0  0  0  0  0  0  0
   37.0330   27.7600   37.6720 C   0  0  0  0  0  0  0  0  0  0  0  0
   38.3540   28.1430   37.5180 C   0  0  0  0  0  0  0  0  0  0  0  0
   39.0400   27.8900   36.3390 C   0  0  0  0  0  0  0  0  0  0  0  0
  2  1  1  0
  6  1  1  0
  3  2  1  0
 11  2  1  0
  4  3  1  0
 10  3  1  0
  5  4  1  0
  9  4  1  0
  6  5  1  0
  8  5  1  0
  7  6  1  0
 13  7  1  0
 16  7  2  0
 12 11  1  0
 14 13  1  0
 15 14  2  0
 17 14  1  0
 16 15  1  0
 18 17  2  0
 22 17  1  0
 19 18  1  0
 20 19  2  0
 21 20  1  0
 23 20  1  0
 22 21  2  0
 25 21  1  0
 24 23  2  0
 26 23  1  0
 25 24  1  0
 29 24  1  0
 27 26  2  0
 28 27  1  0
 29 28  2  0
A    1
O5'
A    2
C5'
A    3
C4'
A    4
C3'
A    5
C2'
A    6
C1'
A    7
C1
A    8
O2'
A    9
O3'
A   10
O4'
A   11
C6'
A   12
O6'
A   13
N5
A   14
C4
A   15
N3
A   16
N2
A   17
C6
A   18
C11
A   19
C10
A   20
C9
A   21
C8
A   22
C7
A   23
C14
A   24
C13
A   25
C12
A   26
C18
A   27
C17
A   28
C16
A   29
C15
M  END
>  <Id>  (136) 
6F3R_CKZ_A_902

>  <ChainId>  (136) 
A

>  <AsymId>  (136) 
C

>  <SeqNum>  (136) 
902

>  <Name>  (136) 
(2~{S},3~{R},4~{R},5~{S},6~{R})-2-[5-(9~{H}-fluoren-2-yl)-4~{H}-1,2,4-triazol-3-yl]-6-(hydroxymethyl)oxane-3,4,5-triol

>  <SystematicName>  (136) 
(2~{S},3~{R},4~{R},5~{S},6~{R})-2-[5-(9~{H}-fluoren-2-yl)-4~{H}-1,2,4-triazol-3-yl]-6-(hydroxymethyl)oxane-3,4,5-triol

>  <Synonyms>  (136) 


>  <Type>  (136) 
NON-POLYMER

>  <Formula>  (136) 
C21 H21 N3 O5

>  <ObservedFormula>  (136) 
C21 N3 O5

>  <MolecularWeight>  (136) 
395.409

>  <ModifiedDate>  (136) 
2018-02-23

>  <Parent>  (136) 


>  <OneLetterCode>  (136) 


>  <SubcomponentList>  (136) 


>  <AmbiguousFlag>  (136) 
N

>  <InsertionCode>  (136) 


>  <InstanceId>  (136) 
6F3R_CKZ_A_902

>  <ChemCompId>  (136) 
CKZ

>  <PdbId>  (136) 
6F3R

>  <ResidueNumber>  (136) 
902

>  <InChI>  (136) 
InChI=1S/C21H21N3O5/c25-9-15-16(26)17(27)18(28)19(29-15)21-22-20(23-24-21)11-5-6-14-12(8-11)7-10-3-1-2-4-13(10)14/h1-6,8,15-19,25-28H,7,9H2,(H,22,23,24)/t15-,16-,17+,18-,19-/m1/s1

>  <InChIKey>  (136) 
TZDHXEVIRUMISB-UJWQCDCRSA-N

>  <SMILES>  (136) 
c1ccc-2c(c1)Cc3c2ccc(c3)c4[nH]c(nn4)[C@H]5[C@@H]([C@H]([C@@H]([C@H](O5)CO)O)O)O

>  <MissingHeavyAtoms>  (136) 
0

>  <Model>  (136) 
1

>  <AltIds>  (136) 


>  <pKI>  (136) 
5.92

>  <ChemblID>  (136) 
-

>  <standardized_canonical_smiles>  (136) 
OC[C@H]1O[C@@H](c2nnc(-c3ccc4c(c3)Cc3ccccc3-4)[nH]2)[C@H](O)[C@@H](O)[C@@H]1O

$$$$
6F3U_CNK_A_903
     RDKit          3D

 26 29  0  0  0  0  0  0  0  0999 V2000
   33.5300   21.6360   28.3160 O   0  0  0  0  0  0  0  0  0  0  0  0
   32.3880   21.1200   27.6030 C   0  0  0  0  0  0  0  0  0  0  0  0
   32.5790   21.3290   26.0870 C   0  0  0  0  0  0  0  0  0  0  0  0
   32.8940   22.7850   25.7680 C   0  0  0  0  0  0  0  0  0  0  0  0
   34.0470   23.2960   26.6400 C   0  0  0  0  0  0  0  0  0  0  0  0
   33.7120   23.0440   28.1120 C   0  0  0  0  0  0  0  0  0  0  0  0
   34.7630   23.5380   29.0660 C   0  0  0  0  0  0  0  0  0  0  0  0
   34.2510   24.6950   26.4300 O   0  0  0  0  0  0  0  0  0  0  0  0
   33.2150   22.9060   24.3800 O   0  0  0  0  0  0  0  0  0  0  0  0
   31.3870   20.9170   25.4170 O   0  0  0  0  0  0  0  0  0  0  0  0
   32.2420   19.6640   27.9930 C   0  0  0  0  0  0  0  0  0  0  0  0
   33.2630   18.8390   27.4210 O   0  0  0  0  0  0  0  0  0  0  0  0
   34.5330   24.0460   30.2880 N   0  0  0  0  0  0  0  0  0  0  0  0
   35.7700   24.3550   30.8020 C   0  0  0  0  0  0  0  0  0  0  0  0
   36.7340   24.0290   29.9520 N   0  0  0  0  0  0  0  0  0  0  0  0
   36.0910   23.5320   28.8650 N   0  0  0  0  0  0  0  0  0  0  0  0
   35.9490   24.9020   32.1590 C   0  0  0  0  0  0  0  0  0  0  0  0
   34.9210   24.7420   33.0820 C   0  0  0  0  0  0  0  0  0  0  0  0
   35.0300   25.2330   34.3950 C   0  0  0  0  0  0  0  0  0  0  0  0
   36.1550   25.8710   34.8030 C   0  0  0  0  0  0  0  0  0  0  0  0
   37.2400   26.0720   33.9180 C   0  0  0  0  0  0  0  0  0  0  0  0
   37.1590   25.5840   32.5740 C   0  0  0  0  0  0  0  0  0  0  0  0
   38.4030   26.7500   34.3510 C   0  0  0  0  0  0  0  0  0  0  0  0
   39.4470   26.9510   33.5100 C   0  0  0  0  0  0  0  0  0  0  0  0
   39.3800   26.4940   32.1850 C   0  0  0  0  0  0  0  0  0  0  0  0
   38.2800   25.8230   31.7320 C   0  0  0  0  0  0  0  0  0  0  0  0
  2  1  1  0
  6  1  1  0
  3  2  1  0
 11  2  1  0
  4  3  1  0
 10  3  1  0
  5  4  1  0
  9  4  1  0
  6  5  1  0
  8  5  1  0
  7  6  1  0
 13  7  1  0
 16  7  2  0
 12 11  1  0
 14 13  1  0
 15 14  2  0
 17 14  1  0
 16 15  1  0
 18 17  2  0
 22 17  1  0
 19 18  1  0
 20 19  2  0
 21 20  1  0
 22 21  2  0
 23 21  1  0
 26 22  1  0
 24 23  2  0
 25 24  1  0
 26 25  2  0
A    1
O5'
A    2
C5'
A    3
C4'
A    4
C3'
A    5
C2'
A    6
C1'
A    7
C1
A    8
O2'
A    9
O3'
A   10
O4'
A   11
C6'
A   12
O6'
A   13
N5
A   14
C4
A   15
N3
A   16
N2
A   17
C6
A   18
C11
A   19
C10
A   20
C9
A   21
C8
A   22
C7
A   23
C15
A   24
C14
A   25
C13
A   26
C12
M  END
>  <Id>  (137) 
6F3U_CNK_A_903

>  <ChainId>  (137) 
A

>  <AsymId>  (137) 
D

>  <SeqNum>  (137) 
903

>  <Name>  (137) 
(2~{R},3~{S},4~{R},5~{R},6~{S})-2-(hydroxymethyl)-6-(5-naphthalen-1-yl-4~{H}-1,2,4-triazol-3-yl)oxane-3,4,5-triol

>  <SystematicName>  (137) 
(2~{R},3~{S},4~{R},5~{R},6~{S})-2-(hydroxymethyl)-6-(5-naphthalen-1-yl-4~{H}-1,2,4-triazol-3-yl)oxane-3,4,5-triol

>  <Synonyms>  (137) 


>  <Type>  (137) 
NON-POLYMER

>  <Formula>  (137) 
C18 H19 N3 O5

>  <ObservedFormula>  (137) 
C18 N3 O5

>  <MolecularWeight>  (137) 
357.361

>  <ModifiedDate>  (137) 
2018-02-23

>  <Parent>  (137) 


>  <OneLetterCode>  (137) 


>  <SubcomponentList>  (137) 


>  <AmbiguousFlag>  (137) 
N

>  <InsertionCode>  (137) 


>  <InstanceId>  (137) 
6F3U_CNK_A_903

>  <ChemCompId>  (137) 
CNK

>  <PdbId>  (137) 
6F3U

>  <ResidueNumber>  (137) 
903

>  <InChI>  (137) 
InChI=1S/C18H19N3O5/c22-8-12-13(23)14(24)15(25)16(26-12)18-19-17(20-21-18)11-7-3-5-9-4-1-2-6-10(9)11/h1-7,12-16,22-25H,8H2,(H,19,20,21)/t12-,13-,14+,15-,16-/m1/s1

>  <InChIKey>  (137) 
UGWCMNZLMGJTJS-IBEHDNSVSA-N

>  <SMILES>  (137) 
c1ccc2c(c1)cccc2c3[nH]c(nn3)[C@H]4[C@@H]([C@H]([C@@H]([C@H](O4)CO)O)O)O

>  <MissingHeavyAtoms>  (137) 
0

>  <Model>  (137) 
1

>  <AltIds>  (137) 


>  <pKI>  (137) 
4.94

>  <ChemblID>  (137) 
-

>  <standardized_canonical_smiles>  (137) 
OC[C@H]1O[C@@H](c2nnc(-c3cccc4ccccc34)[nH]2)[C@H](O)[C@@H](O)[C@@H]1O

$$$$
6F3S_CKW_A_902
     RDKit          3D

 28 31  0  0  0  0  0  0  0  0999 V2000
   33.5530   21.5360   28.1660 O   0  0  0  0  0  0  0  0  0  0  0  0
   32.3990   20.9850   27.4930 C   0  0  0  0  0  0  0  0  0  0  0  0
   32.5420   21.1760   25.9590 C   0  0  0  0  0  0  0  0  0  0  0  0
   32.8030   22.6330   25.6170 C   0  0  0  0  0  0  0  0  0  0  0  0
   33.9550   23.1950   26.4530 C   0  0  0  0  0  0  0  0  0  0  0  0
   33.7050   22.9410   27.9400 C   0  0  0  0  0  0  0  0  0  0  0  0
   34.8430   23.4350   28.7800 C   0  0  0  0  0  0  0  0  0  0  0  0
   34.1010   24.6030   26.2310 O   0  0  0  0  0  0  0  0  0  0  0  0
   33.1140   22.7580   24.2280 O   0  0  0  0  0  0  0  0  0  0  0  0
   31.3500   20.7230   25.3140 O   0  0  0  0  0  0  0  0  0  0  0  0
   32.3000   19.5380   27.9200 C   0  0  0  0  0  0  0  0  0  0  0  0
   33.2830   18.7080   27.3020 O   0  0  0  0  0  0  0  0  0  0  0  0
   34.7190   24.0470   29.9890 N   0  0  0  0  0  0  0  0  0  0  0  0
   35.9690   24.3250   30.4370 C   0  0  0  0  0  0  0  0  0  0  0  0
   36.8470   23.9110   29.5520 N   0  0  0  0  0  0  0  0  0  0  0  0
   36.1390   23.3480   28.4990 N   0  0  0  0  0  0  0  0  0  0  0  0
   36.2840   24.9780   31.7070 C   0  0  0  0  0  0  0  0  0  0  0  0
   37.5730   25.4350   31.9640 C   0  0  0  0  0  0  0  0  0  0  0  0
   37.8730   26.0550   33.1580 C   0  0  0  0  0  0  0  0  0  0  0  0
   36.9100   26.2410   34.1550 C   0  0  0  0  0  0  0  0  0  0  0  0
   35.6150   25.7810   33.8790 C   0  0  0  0  0  0  0  0  0  0  0  0
   35.3100   25.1600   32.6850 C   0  0  0  0  0  0  0  0  0  0  0  0
   37.2550   26.8990   35.4530 C   0  0  0  0  0  0  0  0  0  0  0  0
   38.5810   27.1990   35.7840 C   0  0  0  0  0  0  0  0  0  0  0  0
   38.9090   27.8000   36.9920 C   0  0  0  0  0  0  0  0  0  0  0  0
   37.9260   28.0980   37.9030 C   0  0  0  0  0  0  0  0  0  0  0  0
   36.6150   27.7910   37.6170 C   0  0  0  0  0  0  0  0  0  0  0  0
   36.2800   27.1930   36.4080 C   0  0  0  0  0  0  0  0  0  0  0  0
  2  1  1  0
  6  1  1  0
  3  2  1  0
 11  2  1  0
  4  3  1  0
 10  3  1  0
  5  4  1  0
  9  4  1  0
  6  5  1  0
  8  5  1  0
  7  6  1  0
 13  7  1  0
 16  7  2  0
 12 11  1  0
 14 13  1  0
 15 14  2  0
 17 14  1  0
 16 15  1  0
 18 17  2  0
 22 17  1  0
 19 18  1  0
 20 19  2  0
 21 20  1  0
 23 20  1  0
 22 21  2  0
 24 23  2  0
 28 23  1  0
 25 24  1  0
 26 25  2  0
 27 26  1  0
 28 27  2  0
A    1
O5'
A    2
C5'
A    3
C4'
A    4
C3'
A    5
C2'
A    6
C1'
A    7
C1
A    8
O2'
A    9
O3'
A   10
O4'
A   11
C6'
A   12
O6'
A   13
N5
A   14
C4
A   15
N3
A   16
N2
A   17
C6
A   18
C7
A   19
C8
A   20
C9
A   21
C10
A   22
C11
A   23
C12
A   24
C13
A   25
C14
A   26
C15
A   27
C16
A   28
C17
M  END
>  <Id>  (138) 
6F3S_CKW_A_902

>  <ChainId>  (138) 
A

>  <AsymId>  (138) 
C

>  <SeqNum>  (138) 
902

>  <Name>  (138) 
(2~{R},3~{S},4~{R},5~{R},6~{S})-2-(hydroxymethyl)-6-[5-(4-phenylphenyl)-4~{H}-1,2,4-triazol-3-yl]oxane-3,4,5-triol

>  <SystematicName>  (138) 
(2~{R},3~{S},4~{R},5~{R},6~{S})-2-(hydroxymethyl)-6-[5-(4-phenylphenyl)-4~{H}-1,2,4-triazol-3-yl]oxane-3,4,5-triol

>  <Synonyms>  (138) 


>  <Type>  (138) 
NON-POLYMER

>  <Formula>  (138) 
C20 H21 N3 O5

>  <ObservedFormula>  (138) 
C20 N3 O5

>  <MolecularWeight>  (138) 
383.398

>  <ModifiedDate>  (138) 
2018-02-23

>  <Parent>  (138) 


>  <OneLetterCode>  (138) 


>  <SubcomponentList>  (138) 


>  <AmbiguousFlag>  (138) 
N

>  <InsertionCode>  (138) 


>  <InstanceId>  (138) 
6F3S_CKW_A_902

>  <ChemCompId>  (138) 
CKW

>  <PdbId>  (138) 
6F3S

>  <ResidueNumber>  (138) 
902

>  <InChI>  (138) 
InChI=1S/C20H21N3O5/c24-10-14-15(25)16(26)17(27)18(28-14)20-21-19(22-23-20)13-8-6-12(7-9-13)11-4-2-1-3-5-11/h1-9,14-18,24-27H,10H2,(H,21,22,23)/t14-,15-,16+,17-,18-/m1/s1

>  <InChIKey>  (138) 
NIARDQNUDKGRGO-UYTYNIKBSA-N

>  <SMILES>  (138) 
c1ccc(cc1)c2ccc(cc2)c3[nH]c(nn3)[C@H]4[C@@H]([C@H]([C@@H]([C@H](O4)CO)O)O)O

>  <MissingHeavyAtoms>  (138) 
0

>  <Model>  (138) 
1

>  <AltIds>  (138) 


>  <pKI>  (138) 
5.62

>  <ChemblID>  (138) 
-

>  <standardized_canonical_smiles>  (138) 
OC[C@H]1O[C@@H](c2nnc(-c3ccc(-c4ccccc4)cc3)[nH]2)[C@H](O)[C@@H](O)[C@@H]1O

$$$$
5OWZ_B0Z_A_903
     RDKit          3D

 26 28  0  0  0  0  0  0  0  0999 V2000
   34.7050   23.4970   28.8140 C   0  0  0  0  0  0  0  0  0  0  0  0
   35.8610   24.3420   30.4140 C   0  0  0  0  0  0  0  0  0  0  0  0
   36.2030   24.9850   31.6810 C   0  0  0  0  0  0  0  0  0  0  0  0
   35.2300   25.1820   32.6540 C   0  0  0  0  0  0  0  0  0  0  0  0
   38.2070   26.3240   35.9490 F   0  0  0  0  0  0  0  0  0  0  0  0
   37.2170   26.8410   35.3880 C   0  0  0  0  0  0  0  0  0  0  0  0
   37.5600   28.0520   35.1510 F   0  0  0  0  0  0  0  0  0  0  0  0
   36.2520   26.8320   36.2460 F   0  0  0  0  0  0  0  0  0  0  0  0
   36.8510   26.1610   34.1000 C   0  0  0  0  0  0  0  0  0  0  0  0
   37.8190   25.9940   33.1350 C   0  0  0  0  0  0  0  0  0  0  0  0
   37.5100   25.3790   31.9330 C   0  0  0  0  0  0  0  0  0  0  0  0
   35.5450   25.7800   33.8630 C   0  0  0  0  0  0  0  0  0  0  0  0
   34.5680   24.0800   30.0210 N   0  0  0  0  0  0  0  0  0  0  0  0
   36.7540   23.9730   29.5220 N   0  0  0  0  0  0  0  0  0  0  0  0
   36.0140   23.4220   28.5160 N   0  0  0  0  0  0  0  0  0  0  0  0
   33.6130   22.9760   27.9370 C   0  0  0  0  0  0  0  0  0  0  0  0
   33.8950   23.2270   26.4490 C   0  0  0  0  0  0  0  0  0  0  0  0
   34.0270   24.6320   26.2040 O   0  0  0  0  0  0  0  0  0  0  0  0
   33.5060   21.5720   28.1760 O   0  0  0  0  0  0  0  0  0  0  0  0
   32.3680   21.0080   27.5050 C   0  0  0  0  0  0  0  0  0  0  0  0
   32.2790   19.5780   27.9340 C   0  0  0  0  0  0  0  0  0  0  0  0
   33.2840   18.7950   27.2940 O   0  0  0  0  0  0  0  0  0  0  0  0
   32.5340   21.1710   25.9550 C   0  0  0  0  0  0  0  0  0  0  0  0
   31.3610   20.6360   25.2960 O   0  0  0  0  0  0  0  0  0  0  0  0
   32.7760   22.6210   25.5830 C   0  0  0  0  0  0  0  0  0  0  0  0
   33.0990   22.7210   24.1810 O   0  0  0  0  0  0  0  0  0  0  0  0
 13  1  1  0
 15  1  2  0
 16  1  1  0
  3  2  1  0
 13  2  1  0
 14  2  2  0
  4  3  2  0
 11  3  1  0
 12  4  1  0
  6  5  1  0
  7  6  1  0
  8  6  1  0
  9  6  1  0
 10  9  1  0
 12  9  2  0
 11 10  2  0
 15 14  1  0
 17 16  1  0
 19 16  1  0
 18 17  1  0
 25 17  1  0
 20 19  1  0
 21 20  1  0
 23 20  1  0
 22 21  1  0
 24 23  1  0
 25 23  1  0
 26 25  1  0
A    1
C1
A    2
C4
A    3
C6
A    4
C11
A    5
F13
A    6
C12
A    7
F14
A    8
F15
A    9
C9
A   10
C8
A   11
C7
A   12
C10
A   13
N5
A   14
N3
A   15
N2
A   16
C1'
A   17
C2'
A   18
O2'
A   19
O5'
A   20
C5'
A   21
C6'
A   22
O6'
A   23
C4'
A   24
O4'
A   25
C3'
A   26
O3'
M  END
>  <Id>  (139) 
5OWZ_B0Z_A_903

>  <ChainId>  (139) 
A

>  <AsymId>  (139) 
D

>  <SeqNum>  (139) 
903

>  <Name>  (139) 
(2~{R},3~{S},4~{R},5~{R},6~{S})-2-(hydroxymethyl)-6-[5-[4-(trifluoromethyl)phenyl]-4~{H}-1,2,4-triazol-3-yl]oxane-3,4,5-triol

>  <SystematicName>  (139) 
(2~{R},3~{S},4~{R},5~{R},6~{S})-2-(hydroxymethyl)-6-[5-[4-(trifluoromethyl)phenyl]-4~{H}-1,2,4-triazol-3-yl]oxane-3,4,5-triol

>  <Synonyms>  (139) 


>  <Type>  (139) 
NON-POLYMER

>  <Formula>  (139) 
C15 H16 F3 N3 O5

>  <ObservedFormula>  (139) 
C15 F3 N3 O5

>  <MolecularWeight>  (139) 
375.3

>  <ModifiedDate>  (139) 
2018-02-23

>  <Parent>  (139) 


>  <OneLetterCode>  (139) 


>  <SubcomponentList>  (139) 


>  <AmbiguousFlag>  (139) 
N

>  <InsertionCode>  (139) 


>  <InstanceId>  (139) 
5OWZ_B0Z_A_903

>  <ChemCompId>  (139) 
B0Z

>  <PdbId>  (139) 
5OWZ

>  <ResidueNumber>  (139) 
903

>  <InChI>  (139) 
InChI=1S/C15H16F3N3O5/c16-15(17,18)7-3-1-6(2-4-7)13-19-14(21-20-13)12-11(25)10(24)9(23)8(5-22)26-12/h1-4,8-12,22-25H,5H2,(H,19,20,21)/t8-,9-,10+,11-,12-/m1/s1

>  <InChIKey>  (139) 
DRGPMAPBLAZFLD-RMPHRYRLSA-N

>  <SMILES>  (139) 
c1cc(ccc1c2[nH]c(nn2)[C@H]3[C@@H]([C@H]([C@@H]([C@H](O3)CO)O)O)O)C(F)(F)F

>  <MissingHeavyAtoms>  (139) 
0

>  <Model>  (139) 
1

>  <AltIds>  (139) 


>  <pKI>  (139) 
3.95

>  <ChemblID>  (139) 
-

>  <standardized_canonical_smiles>  (139) 
OC[C@H]1O[C@@H](c2nnc(-c3ccc(C(F)(F)F)cc3)[nH]2)[C@H](O)[C@@H](O)[C@@H]1O

$$$$
3G2L_LEW_A_998
     RDKit          3D

 26 29  0  0  0  0  0  0  0  0999 V2000
   36.6650   26.6870   29.7240 C   0  0  0  0  0  0  0  0  0  0  0  0
   36.2660   26.8680   28.3820 C   0  0  0  0  0  0  0  0  0  0  0  0
   36.8380   27.8690   27.6020 C   0  0  0  0  0  0  0  0  0  0  0  0
   37.8180   28.7030   28.1550 C   0  0  0  0  0  0  0  0  0  0  0  0
   38.2140   28.5330   29.4870 C   0  0  0  0  0  0  0  0  0  0  0  0
   37.6490   27.5240   30.2730 C   0  0  0  0  0  0  0  0  0  0  0  0
   38.0570   27.3520   31.6030 C   0  0  0  0  0  0  0  0  0  0  0  0
   37.4850   26.3430   32.3930 C   0  0  0  0  0  0  0  0  0  0  0  0
   36.5040   25.5040   31.8480 C   0  0  0  0  0  0  0  0  0  0  0  0
   36.1130   25.6550   30.5120 C   0  0  0  0  0  0  0  0  0  0  0  0
   35.1040   24.8600   29.9690 C   0  0  0  0  0  0  0  0  0  0  0  0
   35.0550   24.2120   28.8100 C   0  0  0  0  0  0  0  0  0  0  0  0
   33.9190   24.6910   30.5380 N   0  0  0  0  0  0  0  0  0  0  0  0
   33.2200   23.9890   29.8100 N   0  0  0  0  0  0  0  0  0  0  0  0
   33.8360   23.6800   28.7890 N   0  0  0  0  0  0  0  0  0  0  0  0
   33.1580   22.8470   27.7720 C   0  0  0  0  0  0  0  0  0  0  0  0
   33.2050   21.4420   28.0700 O   0  0  0  0  0  0  0  0  0  0  0  0
   32.1860   20.7470   27.3050 C   0  0  0  0  0  0  0  0  0  0  0  0
   32.2250   19.2860   27.7560 C   0  0  0  0  0  0  0  0  0  0  0  0
   33.3910   18.6200   27.2360 O   0  0  0  0  0  0  0  0  0  0  0  0
   32.3840   20.9300   25.7740 C   0  0  0  0  0  0  0  0  0  0  0  0
   31.2290   20.4800   25.0810 O   0  0  0  0  0  0  0  0  0  0  0  0
   32.6370   22.4020   25.3860 C   0  0  0  0  0  0  0  0  0  0  0  0
   33.0990   22.4970   24.0380 O   0  0  0  0  0  0  0  0  0  0  0  0
   33.6480   23.0390   26.3300 C   0  0  0  0  0  0  0  0  0  0  0  0
   33.8170   24.4340   26.0240 O   0  0  0  0  0  0  0  0  0  0  0  0
  2  1  2  0
  6  1  1  0
 10  1  1  0
  3  2  1  0
  4  3  2  0
  5  4  1  0
  6  5  2  0
  7  6  1  0
  8  7  2  0
  9  8  1  0
 10  9  2  0
 11 10  1  0
 12 11  2  0
 13 11  1  0
 15 12  1  0
 14 13  2  0
 15 14  1  0
 16 15  1  0
 17 16  1  0
 25 16  1  0
 18 17  1  0
 19 18  1  0
 21 18  1  0
 20 19  1  0
 22 21  1  0
 23 21  1  0
 24 23  1  0
 25 23  1  0
 26 25  1  0
A    1
C18
A    2
C17
A    3
C16
A    4
C15
A    5
C14
A    6
C13
A    7
C12
A    8
C11
A    9
C10
A   10
C9
A   11
C8
A   12
C7
A   13
N3
A   14
N2
A   15
N1
A   16
C1
A   17
O5
A   18
C5
A   19
C6
A   20
O6
A   21
C4
A   22
O4
A   23
C3
A   24
O3
A   25
C2
A   26
O2
M  END
>  <Id>  (140) 
3G2L_LEW_A_998

>  <ChainId>  (140) 
A

>  <AsymId>  (140) 
B

>  <SeqNum>  (140) 
998

>  <Name>  (140) 
1-beta-D-glucopyranosyl-4-naphthalen-1-yl-1H-1,2,3-triazole

>  <SystematicName>  (140) 
(2R,3S,4S,5R,6R)-2-(hydroxymethyl)-6-(4-naphthalen-1-yl-1,2,3-triazol-1-yl)oxane-3,4,5-triol

>  <Synonyms>  (140) 


>  <Type>  (140) 
NON-POLYMER

>  <Formula>  (140) 
C18 H19 N3 O5

>  <ObservedFormula>  (140) 
C18 N3 O5

>  <MolecularWeight>  (140) 
357.361

>  <ModifiedDate>  (140) 
2011-06-04

>  <Parent>  (140) 


>  <OneLetterCode>  (140) 


>  <SubcomponentList>  (140) 


>  <AmbiguousFlag>  (140) 
N

>  <InsertionCode>  (140) 


>  <InstanceId>  (140) 
3G2L_LEW_A_998

>  <ChemCompId>  (140) 
LEW

>  <PdbId>  (140) 
3G2L

>  <ResidueNumber>  (140) 
998

>  <InChI>  (140) 
InChI=1S/C18H19N3O5/c22-9-14-15(23)16(24)17(25)18(26-14)21-8-13(19-20-21)12-7-3-5-10-4-1-2-6-11(10)12/h1-8,14-18,22-25H,9H2/t14-,15-,16+,17-,18-/m1/s1

>  <InChIKey>  (140) 
ZQSWMZLNZOWSSB-UYTYNIKBSA-N

>  <SMILES>  (140) 
c1ccc2c(c1)cccc2c3cn(nn3)[C@H]4[C@@H]([C@H]([C@@H]([C@H](O4)CO)O)O)O

>  <MissingHeavyAtoms>  (140) 
0

>  <Model>  (140) 
1

>  <AltIds>  (140) 


>  <pKI>  (140) 
3.87

>  <ChemblID>  (140) 
-

>  <standardized_canonical_smiles>  (140) 
OC[C@H]1O[C@@H](n2cc(-c3cccc4ccccc34)nn2)[C@H](O)[C@@H](O)[C@@H]1O

$$$$
3G2H_KOT_A_998
     RDKit          3D

 22 24  0  0  0  0  0  0  0  0999 V2000
   37.3570   23.5390   30.4350 C   0  0  0  0  0  0  0  0  0  0  0  0
   38.5770   23.8620   31.0310 C   0  0  0  0  0  0  0  0  0  0  0  0
   38.6730   24.9760   31.8620 C   0  0  0  0  0  0  0  0  0  0  0  0
   37.5590   25.7710   32.1040 C   0  0  0  0  0  0  0  0  0  0  0  0
   36.3390   25.4520   31.5030 C   0  0  0  0  0  0  0  0  0  0  0  0
   36.2390   24.3330   30.6690 C   0  0  0  0  0  0  0  0  0  0  0  0
   35.0210   24.0160   30.0760 C   0  0  0  0  0  0  0  0  0  0  0  0
   34.8170   23.3270   28.9590 C   0  0  0  0  0  0  0  0  0  0  0  0
   33.8170   24.3370   30.5330 N   0  0  0  0  0  0  0  0  0  0  0  0
   32.9580   23.8970   29.7570 N   0  0  0  0  0  0  0  0  0  0  0  0
   33.4960   23.3110   28.8150 N   0  0  0  0  0  0  0  0  0  0  0  0
   32.6900   22.6760   27.7700 C   0  0  0  0  0  0  0  0  0  0  0  0
   32.7500   21.2560   27.9940 O   0  0  0  0  0  0  0  0  0  0  0  0
   31.7020   20.6010   27.2510 C   0  0  0  0  0  0  0  0  0  0  0  0
   31.6660   19.1380   27.6850 C   0  0  0  0  0  0  0  0  0  0  0  0
   32.7720   18.4660   27.0880 O   0  0  0  0  0  0  0  0  0  0  0  0
   31.9110   20.7800   25.7330 C   0  0  0  0  0  0  0  0  0  0  0  0
   30.7450   20.3190   25.0550 O   0  0  0  0  0  0  0  0  0  0  0  0
   32.1080   22.2630   25.3770 C   0  0  0  0  0  0  0  0  0  0  0  0
   32.5420   22.3870   24.0260 O   0  0  0  0  0  0  0  0  0  0  0  0
   33.1230   22.9260   26.3190 C   0  0  0  0  0  0  0  0  0  0  0  0
   33.1770   24.3240   26.0630 O   0  0  0  0  0  0  0  0  0  0  0  0
  2  1  2  0
  6  1  1  0
  3  2  1  0
  4  3  2  0
  5  4  1  0
  6  5  2  0
  7  6  1  0
  8  7  2  0
  9  7  1  0
 11  8  1  0
 10  9  2  0
 11 10  1  0
 12 11  1  0
 13 12  1  0
 21 12  1  0
 14 13  1  0
 15 14  1  0
 17 14  1  0
 16 15  1  0
 18 17  1  0
 19 17  1  0
 20 19  1  0
 21 19  1  0
 22 21  1  0
A    1
C14
A    2
C13
A    3
C12
A    4
C11
A    5
C10
A    6
C9
A    7
C8
A    8
C7
A    9
N3
A   10
N2
A   11
N1
A   12
C1
A   13
O5
A   14
C5
A   15
C6
A   16
O6
A   17
C4
A   18
O4
A   19
C3
A   20
O3
A   21
C2
A   22
O2
M  END
>  <Id>  (141) 
3G2H_KOT_A_998

>  <ChainId>  (141) 
A

>  <AsymId>  (141) 
B

>  <SeqNum>  (141) 
998

>  <Name>  (141) 
1-beta-D-glucopyranosyl-4-phenyl-1H-1,2,3-triazole

>  <SystematicName>  (141) 
(2R,3S,4S,5R,6R)-2-(hydroxymethyl)-6-(4-phenyl-1,2,3-triazol-1-yl)oxane-3,4,5-triol

>  <Synonyms>  (141) 


>  <Type>  (141) 
NON-POLYMER

>  <Formula>  (141) 
C14 H17 N3 O5

>  <ObservedFormula>  (141) 
C14 N3 O5

>  <MolecularWeight>  (141) 
307.302

>  <ModifiedDate>  (141) 
2011-06-04

>  <Parent>  (141) 


>  <OneLetterCode>  (141) 


>  <SubcomponentList>  (141) 


>  <AmbiguousFlag>  (141) 
N

>  <InsertionCode>  (141) 


>  <InstanceId>  (141) 
3G2H_KOT_A_998

>  <ChemCompId>  (141) 
KOT

>  <PdbId>  (141) 
3G2H

>  <ResidueNumber>  (141) 
998

>  <InChI>  (141) 
InChI=1S/C14H17N3O5/c18-7-10-11(19)12(20)13(21)14(22-10)17-6-9(15-16-17)8-4-2-1-3-5-8/h1-6,10-14,18-21H,7H2/t10-,11-,12+,13-,14-/m1/s1

>  <InChIKey>  (141) 
SLCZDPXCZLKLKY-RKQHYHRCSA-N

>  <SMILES>  (141) 
c1ccc(cc1)c2cn(nn2)[C@H]3[C@@H]([C@H]([C@@H]([C@H](O3)CO)O)O)O

>  <MissingHeavyAtoms>  (141) 
0

>  <Model>  (141) 
1

>  <AltIds>  (141) 


>  <pKI>  (141) 
3.82

>  <ChemblID>  (141) 
-

>  <standardized_canonical_smiles>  (141) 
OC[C@H]1O[C@@H](n2cc(-c3ccccc3)nn2)[C@H](O)[C@@H](O)[C@@H]1O

$$$$
4YI3_4D0_A_902
     RDKit          3D

 31 33  0  0  0  0  0  0  0  0999 V2000
   37.0180   27.7350   37.2830 C   0  0  0  0  0  0  0  0  0  0  0  0
   38.6950   26.9380   35.7130 C   0  0  0  0  0  0  0  0  0  0  0  0
   37.6780   26.4460   34.8770 C   0  0  0  0  0  0  0  0  0  0  0  0
   39.3970   28.0980   37.7340 C   0  0  0  0  0  0  0  0  0  0  0  0
   39.1250   29.2300   38.5220 C   0  0  0  0  0  0  0  0  0  0  0  0
   40.1250   29.8110   39.3190 C   0  0  0  0  0  0  0  0  0  0  0  0
   40.6960   27.5600   37.7150 C   0  0  0  0  0  0  0  0  0  0  0  0
   41.6990   28.1370   38.5020 C   0  0  0  0  0  0  0  0  0  0  0  0
   41.4110   29.2600   39.2870 C   0  0  0  0  0  0  0  0  0  0  0  0
   38.3710   27.5720   36.9240 C   0  0  0  0  0  0  0  0  0  0  0  0
   36.0040   27.2540   36.4450 C   0  0  0  0  0  0  0  0  0  0  0  0
   36.3290   26.6110   35.2500 C   0  0  0  0  0  0  0  0  0  0  0  0
   35.2580   26.1620   34.4670 C   0  0  0  0  0  0  0  0  0  0  0  0
   35.5490   25.5330   33.1100 C   0  0  0  0  0  0  0  0  0  0  0  0
   34.3040   25.1370   32.2980 C   0  0  0  0  0  0  0  0  0  0  0  0
   33.1680   25.3830   32.7340 O   0  0  0  0  0  0  0  0  0  0  0  0
   34.6140   24.5590   31.1070 N   0  0  0  0  0  0  0  0  0  0  0  0
   33.6780   24.1020   30.2380 C   0  0  0  0  0  0  0  0  0  0  0  0
   32.4630   24.1360   30.4700 O   0  0  0  0  0  0  0  0  0  0  0  0
   34.1620   23.5640   29.1010 N   0  0  0  0  0  0  0  0  0  0  0  0
   33.2730   22.9910   28.0860 C   0  0  0  0  0  0  0  0  0  0  0  0
   33.2670   21.5540   28.3560 O   0  0  0  0  0  0  0  0  0  0  0  0
   32.2020   20.9210   27.6080 C   0  0  0  0  0  0  0  0  0  0  0  0
   32.1590   19.4410   28.0070 C   0  0  0  0  0  0  0  0  0  0  0  0
   33.2470   18.7330   27.3680 O   0  0  0  0  0  0  0  0  0  0  0  0
   32.4460   21.1050   26.0560 C   0  0  0  0  0  0  0  0  0  0  0  0
   31.2970   20.6140   25.3160 O   0  0  0  0  0  0  0  0  0  0  0  0
   32.7260   22.5830   25.6780 C   0  0  0  0  0  0  0  0  0  0  0  0
   33.2180   22.6260   24.3320 O   0  0  0  0  0  0  0  0  0  0  0  0
   33.7670   23.2200   26.6580 C   0  0  0  0  0  0  0  0  0  0  0  0
   33.9330   24.6100   26.4020 O   0  0  0  0  0  0  0  0  0  0  0  0
 10  1  2  0
 11  1  1  0
  3  2  2  0
 10  2  1  0
 12  3  1  0
  5  4  2  0
  7  4  1  0
 10  4  1  0
  6  5  1  0
  9  6  2  0
  8  7  2  0
  9  8  1  0
 12 11  2  0
 13 12  1  0
 14 13  1  0
 15 14  1  0
 16 15  2  0
 17 15  1  0
 18 17  1  0
 19 18  2  0
 20 18  1  0
 21 20  1  0
 22 21  1  0
 30 21  1  0
 23 22  1  0
 24 23  1  0
 26 23  1  0
 25 24  1  0
 27 26  1  0
 28 26  1  0
 29 28  1  0
 30 28  1  0
 31 30  1  0
A    1
C11
A    2
C13
A    3
C14
A    4
C15
A    5
C16
A    6
C17
A    7
C20
A    8
C19
A    9
C18
A   10
C12
A   11
C10
A   12
C9
A   13
C8
A   14
C7
A   15
C5
A   16
O6
A   17
N4
A   18
C2
A   19
O3
A   20
N1
A   21
C1'
A   22
O5'
A   23
C5'
A   24
C6'
A   25
O6'
A   26
C4'
A   27
O4'
A   28
C3'
A   29
O3'
A   30
C2'
A   31
O2'
M  END
>  <Id>  (142) 
4YI3_4D0_A_902

>  <ChainId>  (142) 
A

>  <AsymId>  (142) 
C

>  <SeqNum>  (142) 
902

>  <Name>  (142) 
N-{[3-(biphenyl-4-yl)propanoyl]carbamoyl}-beta-D-glucopyranosylamine

>  <SystematicName>  (142) 
N-[[(2R,3R,4S,5S,6R)-6-(hydroxymethyl)-3,4,5-tris(oxidanyl)oxan-2-yl]carbamoyl]-3-(4-phenylphenyl)propanamide

>  <Synonyms>  (142) 


>  <Type>  (142) 
NON-POLYMER

>  <Formula>  (142) 
C22 H26 N2 O7

>  <ObservedFormula>  (142) 
C22 N2 O7

>  <MolecularWeight>  (142) 
430.451

>  <ModifiedDate>  (142) 
2015-11-13

>  <Parent>  (142) 


>  <OneLetterCode>  (142) 


>  <SubcomponentList>  (142) 


>  <AmbiguousFlag>  (142) 
N

>  <InsertionCode>  (142) 


>  <InstanceId>  (142) 
4YI3_4D0_A_902

>  <ChemCompId>  (142) 
4D0

>  <PdbId>  (142) 
4YI3

>  <ResidueNumber>  (142) 
902

>  <InChI>  (142) 
InChI=1S/C22H26N2O7/c25-12-16-18(27)19(28)20(29)21(31-16)24-22(30)23-17(26)11-8-13-6-9-15(10-7-13)14-4-2-1-3-5-14/h1-7,9-10,16,18-21,25,27-29H,8,11-12H2,(H2,23,24,26,30)/t16-,18-,19+,20-,21-/m1/s1

>  <InChIKey>  (142) 
DTCZORBBXRCGBE-QNDFHXLGSA-N

>  <MissingHeavyAtoms>  (142) 
0

>  <Model>  (142) 
1

>  <AltIds>  (142) 


>  <pKI>  (142) 
5.31

>  <ChemblID>  (142) 
-

>  <standardized_canonical_smiles>  (142) 
O=C(CCc1ccc(-c2ccccc2)cc1)NC(=O)N[C@@H]1O[C@H](CO)[C@@H](O)[C@H](O)[C@H]1O

$$$$
5MCB_CGG_A_902
     RDKit          3D

 25 26  0  0  0  0  0  0  0  0999 V2000
   32.4290   20.7760   27.2930 C   0  0  0  0  0  0  0  0  0  0  0  0
   32.6460   20.9920   25.7940 C   0  0  0  0  0  0  0  0  0  0  0  0
   32.6170   22.5000   25.4510 C   0  0  0  0  0  0  0  0  0  0  0  0
   33.1510   23.5070   26.5390 C   0  0  0  0  0  0  0  0  0  0  0  0
   33.3850   22.9520   27.9670 C   0  0  0  0  0  0  0  0  0  0  0  0
   34.3010   23.9890   29.9460 C   0  0  0  0  0  0  0  0  0  0  0  0
   35.4390   24.5560   30.7030 C   0  0  0  0  0  0  0  0  0  0  0  0
   35.3200   24.9090   31.9870 C   0  0  0  0  0  0  0  0  0  0  0  0
   36.4470   25.4600   32.7940 C   0  0  0  0  0  0  0  0  0  0  0  0
   37.7310   25.7280   32.2880 C   0  0  0  0  0  0  0  0  0  0  0  0
   38.7320   26.2490   33.1120 C   0  0  0  0  0  0  0  0  0  0  0  0
   38.4820   26.5140   34.4590 C   0  0  0  0  0  0  0  0  0  0  0  0
   33.3160   18.5180   27.2290 O   0  0  0  0  0  0  0  0  0  0  0  0
   31.1460   21.3090   27.5770 O   0  0  0  0  0  0  0  0  0  0  0  0
   33.2180   22.6510   24.1480 O   0  0  0  0  0  0  0  0  0  0  0  0
   34.2770   24.3230   26.1720 O   0  0  0  0  0  0  0  0  0  0  0  0
   34.5560   23.4960   28.6190 O   0  0  0  0  0  0  0  0  0  0  0  0
   33.1650   23.8990   30.4090 O   0  0  0  0  0  0  0  0  0  0  0  0
   39.4950   27.0110   35.2520 O   0  0  0  0  0  0  0  0  0  0  0  0
   36.9190   26.4770   36.2790 O   0  0  0  0  0  0  0  0  0  0  0  0
   33.5120   21.4550   28.0790 C   0  0  0  0  0  0  0  0  0  0  0  0
   32.4440   19.3570   27.7400 C   0  0  0  0  0  0  0  0  0  0  0  0
   31.6810   18.9620   28.6000 O   0  0  0  0  0  0  0  0  0  0  0  0
   36.2000   25.7280   34.1380 C   0  0  0  0  0  0  0  0  0  0  0  0
   37.2080   26.2450   34.9650 C   0  0  0  0  0  0  0  0  0  0  0  0
  2  1  1  0
 14  1  1  0
 21  1  1  0
 22  1  1  0
  3  2  1  0
  4  3  1  0
 15  3  1  0
  5  4  1  0
 16  4  1  0
 17  5  1  0
 21  5  1  0
  7  6  1  0
 17  6  1  0
 18  6  2  0
  8  7  2  0
  9  8  1  0
 10  9  2  0
 24  9  1  0
 11 10  1  0
 12 11  2  0
 19 12  1  0
 25 12  1  0
 22 13  2  0
 25 20  1  0
 23 22  1  0
 25 24  2  0
A    1
C1
A    2
C2
A    3
C3
A    4
C4
A    5
C5
A    6
C6
A    7
C7
A    8
C8
A    9
C9
A   10
C10
A   11
C11
A   12
C12
A   13
O1
A   14
O2
A   15
O3
A   16
O4
A   17
O5
A   18
O6
A   19
O7
A   20
O8
A   21
C15
A   22
C
A   23
O
A   24
C14
A   25
C13
M  END
>  <Id>  (143) 
5MCB_CGG_A_902

>  <ChainId>  (143) 
A

>  <AsymId>  (143) 
C

>  <SeqNum>  (143) 
902

>  <Name>  (143) 
Chlorogenic acid

>  <SystematicName>  (143) 
(1~{S},3~{R},4~{S},5~{S})-3-[(~{E})-3-[3,4-bis(oxidanyl)phenyl]prop-2-enoyl]oxy-1,4,5-tris(oxidanyl)cyclohexane-1-carboxylic acid

>  <Synonyms>  (143) 


>  <Type>  (143) 
NON-POLYMER

>  <Formula>  (143) 
C16 H18 O9

>  <ObservedFormula>  (143) 
C16 O9

>  <MolecularWeight>  (143) 
354.309

>  <ModifiedDate>  (143) 
2017-09-15

>  <Parent>  (143) 


>  <OneLetterCode>  (143) 


>  <SubcomponentList>  (143) 


>  <AmbiguousFlag>  (143) 
N

>  <InsertionCode>  (143) 


>  <InstanceId>  (143) 
5MCB_CGG_A_902

>  <ChemCompId>  (143) 
CGG

>  <PdbId>  (143) 
5MCB

>  <ResidueNumber>  (143) 
902

>  <InChI>  (143) 
InChI=1S/C16H18O9/c17-9-3-1-8(5-10(9)18)2-4-13(20)25-12-7-16(24,15(22)23)6-11(19)14(12)21/h1-5,11-12,14,17-19,21,24H,6-7H2,(H,22,23)/b4-2+/t11-,12+,14-,16-/m0/s1

>  <InChIKey>  (143) 
CWVRJTMFETXNAD-FWCWNIRPSA-N

>  <SMILES>  (143) 
c1cc(c(cc1/C=C/C(=O)O[C@@H]2C[C@@](C[C@@H]([C@@H]2O)O)(C(=O)O)O)O)O

>  <MissingHeavyAtoms>  (143) 
0

>  <Model>  (143) 
1

>  <AltIds>  (143) 


>  <pKI>  (143) 
2.6

>  <ChemblID>  (143) 
-

>  <standardized_canonical_smiles>  (143) 
O=C(/C=C/c1ccc(O)c(O)c1)O[C@@H]1C[C@](O)(C(=O)O)C[C@H](O)[C@@H]1O

$$$$
2PYI_DL8_A_998
     RDKit          3D

 26 28  0  0  0  0  0  0  0  0999 V2000
   37.4770   27.0690   34.3710 C   0  0  0  0  0  0  0  0  0  0  0  0
   38.1450   28.0950   35.0410 C   0  0  0  0  0  0  0  0  0  0  0  0
   39.0830   28.8750   34.3640 C   0  0  0  0  0  0  0  0  0  0  0  0
   39.3580   28.6220   33.0220 C   0  0  0  0  0  0  0  0  0  0  0  0
   38.6930   27.5940   32.3550 C   0  0  0  0  0  0  0  0  0  0  0  0
   37.7500   26.8160   33.0250 C   0  0  0  0  0  0  0  0  0  0  0  0
   37.0850   25.7900   32.3560 C   0  0  0  0  0  0  0  0  0  0  0  0
   37.3360   25.3420   31.1320 C   0  0  0  0  0  0  0  0  0  0  0  0
   36.0660   25.0610   32.8160 N   0  0  0  0  0  0  0  0  0  0  0  0
   35.7310   24.2410   31.9510 N   0  0  0  0  0  0  0  0  0  0  0  0
   36.4450   24.3770   30.9500 N   0  0  0  0  0  0  0  0  0  0  0  0
   36.3560   23.5880   29.7090 C   0  0  0  0  0  0  0  0  0  0  0  0
   34.9140   23.4540   29.1880 C   0  0  0  0  0  0  0  0  0  0  0  0
   33.9420   23.8780   29.8180 O   0  0  0  0  0  0  0  0  0  0  0  0
   34.8340   22.8440   28.0080 N   0  0  0  0  0  0  0  0  0  0  0  0
   33.5360   22.5910   27.3500 C   0  0  0  0  0  0  0  0  0  0  0  0
   33.2770   21.1790   27.5850 O   0  0  0  0  0  0  0  0  0  0  0  0
   32.0530   20.7010   26.9910 C   0  0  0  0  0  0  0  0  0  0  0  0
   31.8630   19.2380   27.4150 C   0  0  0  0  0  0  0  0  0  0  0  0
   32.9520   18.4460   26.9080 O   0  0  0  0  0  0  0  0  0  0  0  0
   32.1620   20.8690   25.4610 C   0  0  0  0  0  0  0  0  0  0  0  0
   30.9800   20.3750   24.8180 O   0  0  0  0  0  0  0  0  0  0  0  0
   32.4050   22.3470   25.0950 C   0  0  0  0  0  0  0  0  0  0  0  0
   32.6380   22.4610   23.6870 O   0  0  0  0  0  0  0  0  0  0  0  0
   33.6220   22.9060   25.8500 C   0  0  0  0  0  0  0  0  0  0  0  0
   33.7330   24.3210   25.6610 O   0  0  0  0  0  0  0  0  0  0  0  0
  2  1  2  0
  6  1  1  0
  3  2  1  0
  4  3  2  0
  5  4  1  0
  6  5  2  0
  7  6  1  0
  8  7  2  0
  9  7  1  0
 11  8  1  0
 10  9  2  0
 11 10  1  0
 12 11  1  0
 13 12  1  0
 14 13  2  0
 15 13  1  0
 16 15  1  0
 17 16  1  0
 25 16  1  0
 18 17  1  0
 19 18  1  0
 21 18  1  0
 20 19  1  0
 22 21  1  0
 23 21  1  0
 24 23  1  0
 25 23  1  0
 26 25  1  0
A    1
C12
A    2
C13
A    3
C14
A    4
C15
A    5
C16
A    6
C11
A    7
C10
A    8
C9
A    9
N4
A   10
N3
A   11
N2
A   12
C8
A   13
C7
A   14
O7
A   15
N1
A   16
C1
A   17
O5
A   18
C5
A   19
C6
A   20
O6
A   21
C4
A   22
O4
A   23
C3
A   24
O3
A   25
C2
A   26
O2
M  END
>  <Id>  (144) 
2PYI_DL8_A_998

>  <ChainId>  (144) 
A

>  <AsymId>  (144) 
B

>  <SeqNum>  (144) 
998

>  <Name>  (144) 
N-[(4-PHENYL-1H-1,2,3-TRIAZOL-1-YL)ACETYL]-BETA-D-GLUCOPYRANOSYLAMINE

>  <SystematicName>  (144) 
2-(4-phenyl-1,2,3-triazol-1-yl)-N-[(2R,3R,4S,5S,6R)-3,4,5-trihydroxy-6-(hydroxymethyl)oxan-2-yl]ethanamide

>  <Synonyms>  (144) 


>  <Type>  (144) 
NON-POLYMER

>  <Formula>  (144) 
C16 H20 N4 O6

>  <ObservedFormula>  (144) 
C16 N4 O6

>  <MolecularWeight>  (144) 
364.353

>  <ModifiedDate>  (144) 
2011-06-04

>  <Parent>  (144) 


>  <OneLetterCode>  (144) 


>  <SubcomponentList>  (144) 


>  <AmbiguousFlag>  (144) 


>  <InsertionCode>  (144) 


>  <InstanceId>  (144) 
2PYI_DL8_A_998

>  <ChemCompId>  (144) 
DL8

>  <PdbId>  (144) 
2PYI

>  <ResidueNumber>  (144) 
998

>  <InChI>  (144) 
InChI=1S/C16H20N4O6/c21-8-11-13(23)14(24)15(25)16(26-11)17-12(22)7-20-6-10(18-19-20)9-4-2-1-3-5-9/h1-6,11,13-16,21,23-25H,7-8H2,(H,17,22)/t11-,13-,14+,15-,16-/m1/s1

>  <InChIKey>  (144) 
NWFJPPOXTYDHDB-YMILTQATSA-N

>  <SMILES>  (144) 
c1ccc(cc1)c2cn(nn2)CC(=O)N[C@H]3[C@@H]([C@H]([C@@H]([C@H](O3)CO)O)O)O

>  <MissingHeavyAtoms>  (144) 
0

>  <Model>  (144) 
1

>  <AltIds>  (144) 


>  <pKI>  (144) 
3.74

>  <ChemblID>  (144) 
-

>  <standardized_canonical_smiles>  (144) 
O=C(Cn1cc(-c2ccccc2)nn1)N[C@@H]1O[C@H](CO)[C@@H](O)[C@H](O)[C@H]1O

$$$$
8GPB_PLP_A_999
     RDKit          3D

 15 15  0  0  0  0  0  0  0  0999 V2000
   24.7880   25.5820   30.1570 N   0  0  0  0  0  0  0  0  0  0  0  0
   23.6710   24.8990   30.3850 C   0  0  0  0  0  0  0  0  0  0  0  0
   22.6670   25.3680   31.4200 C   0  0  0  0  0  0  0  0  0  0  0  0
   23.4250   23.7260   29.7990 C   0  0  0  0  0  0  0  0  0  0  0  0
   22.3070   23.0650   30.1690 O   0  0  0  0  0  0  0  0  0  0  0  0
   24.3230   23.2420   28.8460 C   0  0  0  0  0  0  0  0  0  0  0  0
   24.0880   21.9400   28.1680 C   0  0  0  0  0  0  0  0  0  0  0  0
   25.4170   23.9960   28.5200 C   0  0  0  0  0  0  0  0  0  0  0  0
   25.6510   25.1650   29.1610 C   0  0  0  0  0  0  0  0  0  0  0  0
   26.3660   23.6060   27.4250 C   0  0  0  0  0  0  0  0  0  0  0  0
   25.9640   24.3160   26.2240 O   0  0  0  0  0  0  0  0  0  0  0  0
   27.0320   24.6610   25.1090 P   0  0  0  0  0  0  0  0  0  0  0  0
   27.6950   23.3780   24.8080 O   0  0  0  0  0  0  0  0  0  0  0  0
   26.2760   25.1990   23.9690 O   0  0  0  0  0  0  0  0  0  0  0  0
   27.9050   25.6470   25.7530 O   0  0  0  0  0  0  0  0  0  0  0  0
  2  1  2  0
  9  1  1  0
  3  2  1  0
  4  2  1  0
  5  4  1  0
  6  4  2  0
  7  6  1  0
  8  6  1  0
  9  8  2  0
 10  8  1  0
 11 10  1  0
 12 11  1  0
 13 12  2  0
 14 12  1  0
 15 12  1  0
A    1
N1
A    2
C2
A    3
C2A
A    4
C3
A    5
O3
A    6
C4
A    7
C4A
A    8
C5
A    9
C6
A   10
C5A
A   11
O4P
A   12
P
A   13
O1P
A   14
O2P
A   15
O3P
M  END
>  <Id>  (145) 
8GPB_PLP_A_999

>  <ChainId>  (145) 
A

>  <AsymId>  (145) 
B

>  <SeqNum>  (145) 
999

>  <Name>  (145) 
PYRIDOXAL-5'-PHOSPHATE

>  <SystematicName>  (145) 
(5-hydroxy-4-methanoyl-6-methyl-pyridin-3-yl)methyl dihydrogen phosphate

>  <Synonyms>  (145) 
VITAMIN B6 Phosphate

>  <Type>  (145) 
NON-POLYMER

>  <Formula>  (145) 
C8 H10 N O6 P

>  <ObservedFormula>  (145) 
P C8 N O5

>  <MolecularWeight>  (145) 
247.142

>  <ModifiedDate>  (145) 
2011-06-04

>  <Parent>  (145) 


>  <OneLetterCode>  (145) 


>  <SubcomponentList>  (145) 


>  <AmbiguousFlag>  (145) 
N

>  <InsertionCode>  (145) 


>  <InstanceId>  (145) 
8GPB_PLP_A_999

>  <ChemCompId>  (145) 
PLP

>  <PdbId>  (145) 
8GPB

>  <ResidueNumber>  (145) 
999

>  <InChI>  (145) 
InChI=1S/C8H10NO6P/c1-5-8(11)7(3-10)6(2-9-5)4-15-16(12,13)14/h2-3,11H,4H2,1H3,(H2,12,13,14)

>  <InChIKey>  (145) 
NGVDGCNFYWLIFO-UHFFFAOYSA-N

>  <MissingHeavyAtoms>  (145) 
1

>  <Model>  (145) 
1

>  <AltIds>  (145) 


>  <pKI>  (145) 
2.85

>  <ChemblID>  (145) 
-

>  <standardized_canonical_smiles>  (145) 
O=C(NC1CC1)C(=O)N[C@@H]1O[C@H](CO)[C@@H](O)[C@H](O)[C@H]1O

$$$$
8GPB_AMP_A_940
     RDKit          3D

 23 25  0  0  0  0  0  0  0  0999 V2000
   37.6040   37.5110   37.0070 P   0  0  0  0  0  0  0  0  0  0  0  0
   37.9290   38.2280   38.2920 O   0  0  0  0  0  0  0  0  0  0  0  0
   37.0390   38.4090   35.9620 O   0  0  0  0  0  0  0  0  0  0  0  0
   36.8690   36.2340   37.1240 O   0  0  0  0  0  0  0  0  0  0  0  0
   39.0630   37.0280   36.3440 O   0  0  0  0  0  0  0  0  0  0  0  0
   40.3700   37.6890   36.4150 C   0  0  0  0  0  0  0  0  0  0  0  0
   40.6570   38.6780   35.2110 C   0  0  0  0  0  0  0  0  0  0  0  0
   40.6980   37.9080   33.9830 O   0  0  0  0  0  0  0  0  0  0  0  0
   39.5720   39.7510   35.0000 C   0  0  0  0  0  0  0  0  0  0  0  0
   39.9450   40.8850   35.8350 O   0  0  0  0  0  0  0  0  0  0  0  0
   39.7050   40.0260   33.4880 C   0  0  0  0  0  0  0  0  0  0  0  0
   40.8860   40.8430   33.2010 O   0  0  0  0  0  0  0  0  0  0  0  0
   39.9640   38.5930   32.9340 C   0  0  0  0  0  0  0  0  0  0  0  0
   38.8510   37.6290   32.7150 N   0  0  0  0  0  0  0  0  0  0  0  0
   38.0800   37.0180   33.6810 C   0  0  0  0  0  0  0  0  0  0  0  0
   37.3210   36.0310   33.2870 N   0  0  0  0  0  0  0  0  0  0  0  0
   37.5930   35.9960   31.9370 C   0  0  0  0  0  0  0  0  0  0  0  0
   37.1150   35.1290   30.9680 C   0  0  0  0  0  0  0  0  0  0  0  0
   36.3270   34.0820   31.2670 N   0  0  0  0  0  0  0  0  0  0  0  0
   37.5670   35.3320   29.7320 N   0  0  0  0  0  0  0  0  0  0  0  0
   38.4450   36.3160   29.5070 C   0  0  0  0  0  0  0  0  0  0  0  0
   38.9890   37.1990   30.3330 N   0  0  0  0  0  0  0  0  0  0  0  0
   38.5030   36.9670   31.5670 C   0  0  0  0  0  0  0  0  0  0  0  0
  2  1  2  0
  3  1  1  0
  4  1  1  0
  5  1  1  0
  6  5  1  0
  7  6  1  0
  8  7  1  0
  9  7  1  0
 13  8  1  0
 10  9  1  0
 11  9  1  0
 12 11  1  0
 13 11  1  0
 14 13  1  0
 15 14  1  0
 23 14  1  0
 16 15  2  0
 17 16  1  0
 18 17  1  0
 23 17  2  0
 19 18  1  0
 20 18  2  0
 21 20  1  0
 22 21  2  0
 23 22  1  0
A    1
P
A    2
O1P
A    3
O2P
A    4
O3P
A    5
O5'
A    6
C5'
A    7
C4'
A    8
O4'
A    9
C3'
A   10
O3'
A   11
C2'
A   12
O2'
A   13
C1'
A   14
N9
A   15
C8
A   16
N7
A   17
C5
A   18
C6
A   19
N6
A   20
N1
A   21
C2
A   22
N3
A   23
C4
M  END
>  <Id>  (146) 
8GPB_AMP_A_940

>  <ChainId>  (146) 
A

>  <AsymId>  (146) 
D

>  <SeqNum>  (146) 
940

>  <Name>  (146) 
ADENOSINE MONOPHOSPHATE

>  <SystematicName>  (146) 
[(2R,3S,4R,5R)-5-(6-aminopurin-9-yl)-3,4-bis(oxidanyl)oxolan-2-yl]methyl dihydrogen phosphate

>  <Synonyms>  (146) 


>  <Type>  (146) 
NON-POLYMER

>  <Formula>  (146) 
C10 H14 N5 O7 P

>  <ObservedFormula>  (146) 
P C10 N5 O7

>  <MolecularWeight>  (146) 
347.221

>  <ModifiedDate>  (146) 
2011-12-08

>  <Parent>  (146) 


>  <OneLetterCode>  (146) 


>  <SubcomponentList>  (146) 


>  <AmbiguousFlag>  (146) 
N

>  <InsertionCode>  (146) 


>  <InstanceId>  (146) 
8GPB_AMP_A_940

>  <ChemCompId>  (146) 
AMP

>  <PdbId>  (146) 
8GPB

>  <ResidueNumber>  (146) 
940

>  <InChI>  (146) 
InChI=1S/C10H14N5O7P/c11-8-5-9(13-2-12-8)15(3-14-5)10-7(17)6(16)4(22-10)1-21-23(18,19)20/h2-4,6-7,10,16-17H,1H2,(H2,11,12,13)(H2,18,19,20)/t4-,6-,7-,10-/m1/s1

>  <InChIKey>  (146) 
UDMBCSSLTHHNCD-KQYNXXCUSA-N

>  <SMILES>  (146) 
c1nc(c2c(n1)n(cn2)[C@H]3[C@@H]([C@@H]([C@H](O3)COP(=O)(O)O)O)O)N

>  <MissingHeavyAtoms>  (146) 
0

>  <Model>  (146) 
1

>  <AltIds>  (146) 


>  <pKI>  (146) 
2.85

>  <ChemblID>  (146) 
-

>  <standardized_canonical_smiles>  (146) 
O=C(NC1CC1)C(=O)N[C@@H]1O[C@H](CO)[C@@H](O)[C@H](O)[C@H]1O

$$$$
2F3U_8GP_A_998
     RDKit          3D

 20 21  0  0  0  0  0  0  0  0999 V2000
   33.4140   22.7050   27.8990 C   0  0  0  0  0  0  0  0  0  0  0  0
   33.7430   22.9480   26.4240 C   0  0  0  0  0  0  0  0  0  0  0  0
   33.9110   24.3560   26.2370 O   0  0  0  0  0  0  0  0  0  0  0  0
   32.5660   22.4660   25.5740 C   0  0  0  0  0  0  0  0  0  0  0  0
   32.8790   22.6390   24.1890 O   0  0  0  0  0  0  0  0  0  0  0  0
   32.2910   20.9880   25.8570 C   0  0  0  0  0  0  0  0  0  0  0  0
   31.0830   20.6100   25.1910 O   0  0  0  0  0  0  0  0  0  0  0  0
   32.1360   20.7600   27.3650 C   0  0  0  0  0  0  0  0  0  0  0  0
   33.2730   21.2820   28.0780 O   0  0  0  0  0  0  0  0  0  0  0  0
   31.9400   19.2620   27.6140 C   0  0  0  0  0  0  0  0  0  0  0  0
   33.1490   18.5410   27.3520 O   0  0  0  0  0  0  0  0  0  0  0  0
   34.5400   23.2040   28.7240 N   0  0  0  0  0  0  0  0  0  0  0  0
   34.2960   23.6350   29.9600 C   0  0  0  0  0  0  0  0  0  0  0  0
   33.1670   23.6490   30.4530 O   0  0  0  0  0  0  0  0  0  0  0  0
   35.4350   24.3040   30.7350 C   0  0  0  0  0  0  0  0  0  0  0  0
   35.1440   25.0750   31.6540 O   0  0  0  0  0  0  0  0  0  0  0  0
   36.6810   24.0360   30.3400 N   0  0  0  0  0  0  0  0  0  0  0  0
   37.9060   24.5710   30.9560 C   0  0  0  0  0  0  0  0  0  0  0  0
   38.3450   23.8700   32.2470 C   0  0  0  0  0  0  0  0  0  0  0  0
   37.7680   25.2860   32.3060 C   0  0  0  0  0  0  0  0  0  0  0  0
  2  1  1  0
  9  1  1  0
 12  1  1  0
  3  2  1  0
  4  2  1  0
  5  4  1  0
  6  4  1  0
  7  6  1  0
  8  6  1  0
  9  8  1  0
 10  8  1  0
 11 10  1  0
 13 12  1  0
 14 13  2  0
 15 13  1  0
 16 15  2  0
 17 15  1  0
 18 17  1  0
 19 18  1  0
 20 18  1  0
 20 19  1  0
A    1
C1
A    2
C2
A    3
O2
A    4
C3
A    5
O3
A    6
C4
A    7
O4
A    8
C5
A    9
O5
A   10
C6
A   11
O6
A   12
N1
A   13
C7
A   14
O7
A   15
C8
A   16
O8
A   17
N2
A   18
C9
A   19
C10
A   20
C11
M  END
>  <Id>  (147) 
2F3U_8GP_A_998

>  <ChainId>  (147) 
A

>  <AsymId>  (147) 
C

>  <SeqNum>  (147) 
998

>  <Name>  (147) 
N-(BETA-D-GLUCOPYRANOSYL)-N'-CYCLOPROPYL OXALAMIDE

>  <SystematicName>  (147) 
N'-cyclopropyl-N-[(2R,3R,4S,5S,6R)-3,4,5-trihydroxy-6-(hydroxymethyl)oxan-2-yl]ethanediamide

>  <Synonyms>  (147) 


>  <Type>  (147) 
NON-POLYMER

>  <Formula>  (147) 
C11 H18 N2 O7

>  <ObservedFormula>  (147) 
C11 N2 O7

>  <MolecularWeight>  (147) 
290.27

>  <ModifiedDate>  (147) 
2011-06-04

>  <Parent>  (147) 


>  <OneLetterCode>  (147) 


>  <SubcomponentList>  (147) 


>  <AmbiguousFlag>  (147) 
N

>  <InsertionCode>  (147) 


>  <InstanceId>  (147) 
2F3U_8GP_A_998

>  <ChemCompId>  (147) 
8GP

>  <PdbId>  (147) 
2F3U

>  <ResidueNumber>  (147) 
998

>  <InChI>  (147) 
InChI=1S/C11H18N2O7/c14-3-5-6(15)7(16)8(17)11(20-5)13-10(19)9(18)12-4-1-2-4/h4-8,11,14-17H,1-3H2,(H,12,18)(H,13,19)/t5-,6-,7+,8-,11-/m1/s1

>  <InChIKey>  (147) 
ZDEMZENRHYGLSV-NEBGFLKFSA-N

>  <SMILES>  (147) 
C1CC1NC(=O)C(=O)N[C@H]2[C@@H]([C@H]([C@@H]([C@H](O2)CO)O)O)O

>  <MissingHeavyAtoms>  (147) 
0

>  <Model>  (147) 
1

>  <AltIds>  (147) 


>  <pKI>  (147) 
2.85

>  <ChemblID>  (147) 
-

>  <standardized_canonical_smiles>  (147) 
O=C(NC1CC1)C(=O)N[C@@H]1O[C@H](CO)[C@@H](O)[C@H](O)[C@H]1O

$$$$
3CUU_376_A_998
     RDKit          3D

 27 29  0  0  0  0  0  0  0  0999 V2000
   36.5420   26.1020   33.2370 C   0  0  0  0  0  0  0  0  0  0  0  0
   35.4320   25.5540   33.8810 C   0  0  0  0  0  0  0  0  0  0  0  0
   35.3300   25.6510   35.2680 C   0  0  0  0  0  0  0  0  0  0  0  0
   36.3190   26.2830   36.0220 C   0  0  0  0  0  0  0  0  0  0  0  0
   37.4300   26.8250   35.3810 C   0  0  0  0  0  0  0  0  0  0  0  0
   37.5430   26.7370   33.9930 C   0  0  0  0  0  0  0  0  0  0  0  0
   38.6610   27.2880   33.3630 C   0  0  0  0  0  0  0  0  0  0  0  0
   38.7800   27.2090   31.9770 C   0  0  0  0  0  0  0  0  0  0  0  0
   37.7870   26.5750   31.2260 C   0  0  0  0  0  0  0  0  0  0  0  0
   36.6650   26.0070   31.8460 C   0  0  0  0  0  0  0  0  0  0  0  0
   35.6970   25.4190   31.1150 N   0  0  0  0  0  0  0  0  0  0  0  0
   35.8630   24.5820   30.0830 C   0  0  0  0  0  0  0  0  0  0  0  0
   36.9550   24.2110   29.6570 O   0  0  0  0  0  0  0  0  0  0  0  0
   34.5990   24.0520   29.3870 C   0  0  0  0  0  0  0  0  0  0  0  0
   33.4980   24.4120   29.8070 O   0  0  0  0  0  0  0  0  0  0  0  0
   34.7370   23.2200   28.3630 N   0  0  0  0  0  0  0  0  0  0  0  0
   33.5410   22.6990   27.6590 C   0  0  0  0  0  0  0  0  0  0  0  0
   33.4000   21.2840   27.8720 O   0  0  0  0  0  0  0  0  0  0  0  0
   32.1950   20.7970   27.2910 C   0  0  0  0  0  0  0  0  0  0  0  0
   32.0670   19.3540   27.7600 C   0  0  0  0  0  0  0  0  0  0  0  0
   33.1510   18.5800   27.2450 O   0  0  0  0  0  0  0  0  0  0  0  0
   32.2850   20.9510   25.7560 C   0  0  0  0  0  0  0  0  0  0  0  0
   31.0730   20.5230   25.1570 O   0  0  0  0  0  0  0  0  0  0  0  0
   32.5460   22.4080   25.3460 C   0  0  0  0  0  0  0  0  0  0  0  0
   32.8560   22.4640   23.9560 O   0  0  0  0  0  0  0  0  0  0  0  0
   33.7140   22.9910   26.1510 C   0  0  0  0  0  0  0  0  0  0  0  0
   33.8520   24.3960   25.8970 O   0  0  0  0  0  0  0  0  0  0  0  0
  2  1  2  0
  6  1  1  0
 10  1  1  0
  3  2  1  0
  4  3  2  0
  5  4  1  0
  6  5  2  0
  7  6  1  0
  8  7  2  0
  9  8  1  0
 10  9  2  0
 11 10  1  0
 12 11  1  0
 13 12  2  0
 14 12  1  0
 15 14  2  0
 16 14  1  0
 17 16  1  0
 18 17  1  0
 26 17  1  0
 19 18  1  0
 20 19  1  0
 22 19  1  0
 21 20  1  0
 23 22  1  0
 24 22  1  0
 25 24  1  0
 26 24  1  0
 27 26  1  0
A    1
C18
A    2
C17
A    3
C16
A    4
C15
A    5
C14
A    6
C13
A    7
C12
A    8
C11
A    9
C10
A   10
C9
A   11
N2
A   12
C8
A   13
O8
A   14
C7
A   15
O7
A   16
N1
A   17
C1
A   18
O5
A   19
C5
A   20
C6
A   21
O6
A   22
C4
A   23
O4
A   24
C3
A   25
O3
A   26
C2
A   27
O2
M  END
>  <Id>  (148) 
3CUU_376_A_998

>  <ChainId>  (148) 
A

>  <AsymId>  (148) 
B

>  <SeqNum>  (148) 
998

>  <Name>  (148) 
N-[(naphthalen-1-ylamino)(oxo)acetyl]-beta-D-glucopyranosylamine

>  <SystematicName>  (148) 
N-naphthalen-1-yl-N'-[(2R,3R,4S,5S,6R)-3,4,5-trihydroxy-6-(hydroxymethyl)oxan-2-yl]ethanediamide

>  <Synonyms>  (148) 


>  <Type>  (148) 
NON-POLYMER

>  <Formula>  (148) 
C18 H20 N2 O7

>  <ObservedFormula>  (148) 
C18 N2 O7

>  <MolecularWeight>  (148) 
376.361

>  <ModifiedDate>  (148) 
2011-06-04

>  <Parent>  (148) 


>  <OneLetterCode>  (148) 


>  <SubcomponentList>  (148) 


>  <AmbiguousFlag>  (148) 
N

>  <InsertionCode>  (148) 


>  <InstanceId>  (148) 
3CUU_376_A_998

>  <ChemCompId>  (148) 
376

>  <PdbId>  (148) 
3CUU

>  <ResidueNumber>  (148) 
998

>  <InChI>  (148) 
InChI=1S/C18H20N2O7/c21-8-12-13(22)14(23)15(24)18(27-12)20-17(26)16(25)19-11-7-3-5-9-4-1-2-6-10(9)11/h1-7,12-15,18,21-24H,8H2,(H,19,25)(H,20,26)/t12-,13-,14+,15-,18-/m1/s1

>  <InChIKey>  (148) 
AHNFLCXLAFQOCX-VPKNTQAGSA-N

>  <SMILES>  (148) 
c1ccc2c(c1)cccc2NC(=O)C(=O)N[C@H]3[C@@H]([C@H]([C@@H]([C@H](O3)CO)O)O)O

>  <MissingHeavyAtoms>  (148) 
0

>  <Model>  (148) 
1

>  <AltIds>  (148) 


>  <pKI>  (148) 
3.84

>  <ChemblID>  (148) 
-

>  <standardized_canonical_smiles>  (148) 
O=C(Nc1cccc2ccccc12)C(=O)N[C@@H]1O[C@H](CO)[C@@H](O)[C@H](O)[C@H]1O

$$$$
3CUV_475_A_998
     RDKit          3D

 23 24  0  0  0  0  0  0  0  0999 V2000
   33.6610   22.9940   25.9950 C   0  0  0  0  0  0  0  0  0  0  0  0
   35.3450   25.0020   31.3580 N   0  0  0  0  0  0  0  0  0  0  0  0
   32.5350   22.3930   25.1380 C   0  0  0  0  0  0  0  0  0  0  0  0
   32.1050   20.7510   27.0490 C   0  0  0  0  0  0  0  0  0  0  0  0
   33.0400   18.5020   26.9300 O   0  0  0  0  0  0  0  0  0  0  0  0
   32.2590   20.9240   25.5170 C   0  0  0  0  0  0  0  0  0  0  0  0
   37.6380   25.6690   31.6750 C   0  0  0  0  0  0  0  0  0  0  0  0
   38.6100   26.1940   32.5270 C   0  0  0  0  0  0  0  0  0  0  0  0
   38.2450   26.5310   33.8300 C   0  0  0  0  0  0  0  0  0  0  0  0
   36.9260   26.3440   34.2440 C   0  0  0  0  0  0  0  0  0  0  0  0
   36.0210   25.8430   33.4090 N   0  0  0  0  0  0  0  0  0  0  0  0
   36.3270   25.4970   32.1400 C   0  0  0  0  0  0  0  0  0  0  0  0
   35.5250   24.3600   30.1970 C   0  0  0  0  0  0  0  0  0  0  0  0
   36.6270   24.1250   29.6920 O   0  0  0  0  0  0  0  0  0  0  0  0
   34.2900   23.8700   29.4330 C   0  0  0  0  0  0  0  0  0  0  0  0
   33.1660   24.0730   29.8930 O   0  0  0  0  0  0  0  0  0  0  0  0
   34.5060   23.2360   28.2820 N   0  0  0  0  0  0  0  0  0  0  0  0
   33.3890   22.7260   27.4810 C   0  0  0  0  0  0  0  0  0  0  0  0
   33.2540   21.3050   27.7370 O   0  0  0  0  0  0  0  0  0  0  0  0
   31.9690   19.2840   27.4830 C   0  0  0  0  0  0  0  0  0  0  0  0
   31.0750   20.4700   24.8520 O   0  0  0  0  0  0  0  0  0  0  0  0
   32.8930   22.4890   23.7550 O   0  0  0  0  0  0  0  0  0  0  0  0
   33.7620   24.4040   25.7630 O   0  0  0  0  0  0  0  0  0  0  0  0
  3  1  1  0
 18  1  1  0
 23  1  1  0
 12  2  1  0
 13  2  1  0
  6  3  1  0
 22  3  1  0
  6  4  1  0
 19  4  1  0
 20  4  1  0
 20  5  1  0
 21  6  1  0
  8  7  2  0
 12  7  1  0
  9  8  1  0
 10  9  2  0
 11 10  1  0
 12 11  2  0
 14 13  2  0
 15 13  1  0
 16 15  2  0
 17 15  1  0
 18 17  1  0
 19 18  1  0
A    1
C2
A    2
N2
A    3
C3
A    4
C5
A    5
O6
A    6
C4
A    7
C10
A    8
C11
A    9
C12
A   10
C13
A   11
N3
A   12
C9
A   13
C8
A   14
O8
A   15
C7
A   16
O7
A   17
N1
A   18
C1
A   19
O5
A   20
C6
A   21
O4
A   22
O3
A   23
O2
M  END
>  <Id>  (149) 
3CUV_475_A_998

>  <ChainId>  (149) 
A

>  <AsymId>  (149) 
B

>  <SeqNum>  (149) 
998

>  <Name>  (149) 
N-[oxo(pyridin-2-ylamino)acetyl]-beta-D-glucopyranosylamine

>  <SystematicName>  (149) 
N-pyridin-2-yl-N'-[(2R,3R,4S,5S,6R)-3,4,5-trihydroxy-6-(hydroxymethyl)oxan-2-yl]ethanediamide

>  <Synonyms>  (149) 


>  <Type>  (149) 
NON-POLYMER

>  <Formula>  (149) 
C13 H17 N3 O7

>  <ObservedFormula>  (149) 
C13 N3 O7

>  <MolecularWeight>  (149) 
327.29

>  <ModifiedDate>  (149) 
2011-06-04

>  <Parent>  (149) 


>  <OneLetterCode>  (149) 


>  <SubcomponentList>  (149) 


>  <AmbiguousFlag>  (149) 
N

>  <InsertionCode>  (149) 


>  <InstanceId>  (149) 
3CUV_475_A_998

>  <ChemCompId>  (149) 
475

>  <PdbId>  (149) 
3CUV

>  <ResidueNumber>  (149) 
998

>  <InChI>  (149) 
InChI=1S/C13H17N3O7/c17-5-6-8(18)9(19)10(20)13(23-6)16-12(22)11(21)15-7-3-1-2-4-14-7/h1-4,6,8-10,13,17-20H,5H2,(H,16,22)(H,14,15,21)/t6-,8-,9+,10-,13-/m1/s1

>  <InChIKey>  (149) 
XWDCGBAAIPNJDU-ODYQSLDMSA-N

>  <SMILES>  (149) 
c1ccnc(c1)NC(=O)C(=O)N[C@H]2[C@@H]([C@H]([C@@H]([C@H](O2)CO)O)O)O

>  <MissingHeavyAtoms>  (149) 
0

>  <Model>  (149) 
1

>  <AltIds>  (149) 


>  <pKI>  (149) 
3.64

>  <ChemblID>  (149) 
-

>  <standardized_canonical_smiles>  (149) 
O=C(Nc1ccccn1)C(=O)N[C@@H]1O[C@H](CO)[C@@H](O)[C@H](O)[C@H]1O

$$$$
3L7D_DK5_A_843
     RDKit          3D

 26 28  0  0  0  0  0  0  0  0999 V2000
   33.5220   23.1290   27.9090 C   0  0  0  0  0  0  0  0  0  0  0  0
   34.4410   23.7540   28.8990 N   0  0  0  0  0  0  0  0  0  0  0  0
   33.7940   23.4130   26.4090 C   0  0  0  0  0  0  0  0  0  0  0  0
   34.6430   24.8070   31.0200 N   0  0  0  0  0  0  0  0  0  0  0  0
   32.8590   22.5810   25.5040 C   0  0  0  0  0  0  0  0  0  0  0  0
   33.3790   22.4900   24.2340 F   0  0  0  0  0  0  0  0  0  0  0  0
   36.6350   25.5080   31.8950 N   0  0  0  0  0  0  0  0  0  0  0  0
   32.6010   21.1530   26.0200 C   0  0  0  0  0  0  0  0  0  0  0  0
   31.4590   20.6440   25.3200 O   0  0  0  0  0  0  0  0  0  0  0  0
   32.3620   21.0750   27.5480 C   0  0  0  0  0  0  0  0  0  0  0  0
   33.4750   21.7000   28.2340 O   0  0  0  0  0  0  0  0  0  0  0  0
   32.2950   19.6070   28.0180 C   0  0  0  0  0  0  0  0  0  0  0  0
   33.4630   18.9110   27.5450 O   0  0  0  0  0  0  0  0  0  0  0  0
   35.8420   23.8310   28.7150 C   0  0  0  0  0  0  0  0  0  0  0  0
   36.6220   24.4290   29.7170 C   0  0  0  0  0  0  0  0  0  0  0  0
   35.9780   24.9220   30.8750 C   0  0  0  0  0  0  0  0  0  0  0  0
   33.8640   24.2450   30.0790 C   0  0  0  0  0  0  0  0  0  0  0  0
   32.6380   24.1700   30.2400 O   0  0  0  0  0  0  0  0  0  0  0  0
   37.9040   25.9590   31.8300 C   0  0  0  0  0  0  0  0  0  0  0  0
   38.6270   25.8850   30.8320 O   0  0  0  0  0  0  0  0  0  0  0  0
   38.4370   26.6060   33.1230 C   0  0  0  0  0  0  0  0  0  0  0  0
   39.3810   27.6400   33.0380 C   0  0  0  0  0  0  0  0  0  0  0  0
   39.8790   28.2370   34.2010 C   0  0  0  0  0  0  0  0  0  0  0  0
   39.4280   27.8100   35.4520 C   0  0  0  0  0  0  0  0  0  0  0  0
   38.4810   26.7880   35.5340 C   0  0  0  0  0  0  0  0  0  0  0  0
   37.9890   26.1830   34.3730 C   0  0  0  0  0  0  0  0  0  0  0  0
  2  1  1  0
  3  1  1  0
 11  1  1  0
 14  2  1  0
 17  2  1  0
  5  3  1  0
 16  4  2  0
 17  4  1  0
  6  5  1  0
  8  5  1  0
 16  7  1  0
 19  7  1  0
  9  8  1  0
 10  8  1  0
 11 10  1  0
 12 10  1  0
 13 12  1  0
 15 14  2  0
 16 15  1  0
 18 17  2  0
 20 19  2  0
 21 19  1  0
 22 21  2  0
 26 21  1  0
 23 22  1  0
 24 23  2  0
 25 24  1  0
 26 25  2  0
A    1
C1
A    2
N1
A    3
C2
A    4
N2
A    5
C3
A    6
F3
A    7
N3
A    8
C4
A    9
O4
A   10
C5
A   11
O5
A   12
C6
A   13
O6
A   14
C7
A   15
C8
A   16
C9
A   17
C10
A   18
O10
A   19
C11
A   20
O11
A   21
C12
A   22
C13
A   23
C14
A   24
C15
A   25
C16
A   26
C17
M  END
>  <Id>  (150) 
3L7D_DK5_A_843

>  <ChainId>  (150) 
A

>  <AsymId>  (150) 
B

>  <SeqNum>  (150) 
843

>  <Name>  (150) 
1-(2,3-dideoxy-3-fluoro-beta-D-arabino-hexopyranosyl)-4-[(phenylcarbonyl)amino]pyrimidin-2(1H)-one

>  <SystematicName>  (150) 
N-[1-[(2R,4R,5R,6R)-4-fluoro-5-hydroxy-6-(hydroxymethyl)oxan-2-yl]-2-oxo-pyrimidin-4-yl]benzamide

>  <Synonyms>  (150) 


>  <Type>  (150) 
NON-POLYMER

>  <Formula>  (150) 
C17 H18 F N3 O5

>  <ObservedFormula>  (150) 
C17 F N3 O5

>  <MolecularWeight>  (150) 
363.34

>  <ModifiedDate>  (150) 
2011-06-04

>  <Parent>  (150) 


>  <OneLetterCode>  (150) 


>  <SubcomponentList>  (150) 


>  <AmbiguousFlag>  (150) 
N

>  <InsertionCode>  (150) 


>  <InstanceId>  (150) 
3L7D_DK5_A_843

>  <ChemCompId>  (150) 
DK5

>  <PdbId>  (150) 
3L7D

>  <ResidueNumber>  (150) 
843

>  <InChI>  (150) 
InChI=1S/C17H18FN3O5/c18-11-8-14(26-12(9-22)15(11)23)21-7-6-13(20-17(21)25)19-16(24)10-4-2-1-3-5-10/h1-7,11-12,14-15,22-23H,8-9H2,(H,19,20,24,25)/t11-,12-,14-,15+/m1/s1

>  <InChIKey>  (150) 
JDMVJAAWOFCRPK-GBOPCIDUSA-N

>  <SMILES>  (150) 
c1ccc(cc1)C(=O)NC2=NC(=O)N(C=C2)[C@H]3C[C@H]([C@@H]([C@H](O3)CO)O)F

>  <MissingHeavyAtoms>  (150) 
0

>  <Model>  (150) 
1

>  <AltIds>  (150) 


>  <pKI>  (150) 
2.18

>  <ChemblID>  (150) 
-

>  <standardized_canonical_smiles>  (150) 
O=C(Nc1ccn([C@H]2C[C@@H](F)[C@H](O)[C@@H](CO)O2)c(=O)n1)c1ccccc1

$$$$
6F3L_CJW_A_902
     RDKit          3D

 29 32  0  0  0  0  0  0  0  0999 V2000
   33.4680   21.4720   28.1780 O   0  0  0  0  0  0  0  0  0  0  0  0
   32.3290   20.9200   27.4850 C   0  0  0  0  0  0  0  0  0  0  0  0
   32.4870   21.1320   25.9670 C   0  0  0  0  0  0  0  0  0  0  0  0
   32.7350   22.5930   25.6410 C   0  0  0  0  0  0  0  0  0  0  0  0
   33.8860   23.1540   26.4800 C   0  0  0  0  0  0  0  0  0  0  0  0
   33.6260   22.8790   27.9620 C   0  0  0  0  0  0  0  0  0  0  0  0
   34.7610   23.3570   28.8190 C   0  0  0  0  0  0  0  0  0  0  0  0
   34.0350   24.5680   26.2770 O   0  0  0  0  0  0  0  0  0  0  0  0
   33.0270   22.7150   24.2500 O   0  0  0  0  0  0  0  0  0  0  0  0
   31.3040   20.6820   25.3060 O   0  0  0  0  0  0  0  0  0  0  0  0
   32.2390   19.4670   27.8770 C   0  0  0  0  0  0  0  0  0  0  0  0
   33.2400   18.6620   27.2610 O   0  0  0  0  0  0  0  0  0  0  0  0
   34.6600   24.0740   29.9740 N   0  0  0  0  0  0  0  0  0  0  0  0
   35.9210   24.2740   30.4360 C   0  0  0  0  0  0  0  0  0  0  0  0
   36.7790   23.7400   29.5950 N   0  0  0  0  0  0  0  0  0  0  0  0
   36.0510   23.1600   28.5700 N   0  0  0  0  0  0  0  0  0  0  0  0
   36.2810   25.0060   31.6530 C   0  0  0  0  0  0  0  0  0  0  0  0
   35.3110   25.2570   32.6310 C   0  0  0  0  0  0  0  0  0  0  0  0
   35.6320   25.9620   33.7610 C   0  0  0  0  0  0  0  0  0  0  0  0
   36.9540   26.4140   33.9900 C   0  0  0  0  0  0  0  0  0  0  0  0
   37.9360   26.1480   32.9990 C   0  0  0  0  0  0  0  0  0  0  0  0
   37.5640   25.4430   31.8380 C   0  0  0  0  0  0  0  0  0  0  0  0
   37.3430   27.1310   35.1610 C   0  0  0  0  0  0  0  0  0  0  0  0
   38.6450   27.5450   35.3440 C   0  0  0  0  0  0  0  0  0  0  0  0
   39.6140   27.2510   34.3450 C   0  0  0  0  0  0  0  0  0  0  0  0
   39.2610   26.5960   33.2000 C   0  0  0  0  0  0  0  0  0  0  0  0
   39.0640   28.3040   36.5920 C   0  0  0  0  0  0  0  0  0  0  0  0
   38.1820   28.7680   37.3310 O   0  0  0  0  0  0  0  0  0  0  0  0
   40.2880   28.4330   36.8030 O   0  0  0  0  0  0  0  0  0  0  0  0
  2  1  1  0
  6  1  1  0
  3  2  1  0
 11  2  1  0
  4  3  1  0
 10  3  1  0
  5  4  1  0
  9  4  1  0
  6  5  1  0
  8  5  1  0
  7  6  1  0
 13  7  2  0
 16  7  1  0
 12 11  1  0
 14 13  1  0
 15 14  2  0
 17 14  1  0
 16 15  1  0
 18 17  2  0
 22 17  1  0
 19 18  1  0
 20 19  2  0
 21 20  1  0
 23 20  1  0
 22 21  2  0
 26 21  1  0
 24 23  2  0
 25 24  1  0
 27 24  1  0
 26 25  2  0
 28 27  1  0
 29 27  2  0
A    1
O5'
A    2
C5'
A    3
C4'
A    4
C3'
A    5
C2'
A    6
C1'
A    7
C1
A    8
O2'
A    9
O3'
A   10
O4'
A   11
C6'
A   12
O6'
A   13
N5
A   14
C4
A   15
N3
A   16
N2
A   17
C6
A   18
C11
A   19
C10
A   20
C9
A   21
C8
A   22
C7
A   23
C15
A   24
C14
A   25
C13
A   26
C12
A   27
C16
A   28
O18
A   29
O17
M  END
>  <Id>  (151) 
6F3L_CJW_A_902

>  <ChainId>  (151) 
A

>  <AsymId>  (151) 
C

>  <SeqNum>  (151) 
902

>  <Name>  (151) 
6-[5-[(2~{S},3~{R},4~{R},5~{S},6~{R})-6-(hydroxymethyl)-3,4,5-tris(oxidanyl)oxan-2-yl]-1~{H}-1,2,4-triazol-3-yl]naphthalene-2-carboxylic acid

>  <SystematicName>  (151) 
6-[5-[(2~{S},3~{R},4~{R},5~{S},6~{R})-6-(hydroxymethyl)-3,4,5-tris(oxidanyl)oxan-2-yl]-1~{H}-1,2,4-triazol-3-yl]naphthalene-2-carboxylic acid

>  <Synonyms>  (151) 


>  <Type>  (151) 
NON-POLYMER

>  <Formula>  (151) 
C19 H19 N3 O7

>  <ObservedFormula>  (151) 
C19 N3 O7

>  <MolecularWeight>  (151) 
401.37

>  <ModifiedDate>  (151) 
2018-02-23

>  <Parent>  (151) 


>  <OneLetterCode>  (151) 


>  <SubcomponentList>  (151) 


>  <AmbiguousFlag>  (151) 
N

>  <InsertionCode>  (151) 


>  <InstanceId>  (151) 
6F3L_CJW_A_902

>  <ChemCompId>  (151) 
CJW

>  <PdbId>  (151) 
6F3L

>  <ResidueNumber>  (151) 
902

>  <InChI>  (151) 
InChI=1S/C19H19N3O7/c23-7-12-13(24)14(25)15(26)16(29-12)18-20-17(21-22-18)10-3-1-9-6-11(19(27)28)4-2-8(9)5-10/h1-6,12-16,23-26H,7H2,(H,27,28)(H,20,21,22)/t12-,13-,14+,15-,16-/m1/s1

>  <InChIKey>  (151) 
NMFYLVHJQQLQJL-IBEHDNSVSA-N

>  <SMILES>  (151) 
c1cc(cc2c1cc(cc2)C(=O)O)c3nc([nH]n3)[C@H]4[C@@H]([C@H]([C@@H]([C@H](O4)CO)O)O)O

>  <MissingHeavyAtoms>  (151) 
0

>  <Model>  (151) 
1

>  <AltIds>  (151) 


>  <pKI>  (151) 
5.3

>  <ChemblID>  (151) 
-

>  <standardized_canonical_smiles>  (151) 
O=C(O)c1ccc2cc(-c3n[nH]c([C@@H]4O[C@H](CO)[C@@H](O)[C@H](O)[C@H]4O)n3)ccc2c1

$$$$
6F3J_CKQ_A_903
     RDKit          3D

 31 34  0  0  0  0  0  0  0  0999 V2000
   33.3870   21.4730   28.1240 O   0  0  0  0  0  0  0  0  0  0  0  0
   32.2470   20.8980   27.4500 C   0  0  0  0  0  0  0  0  0  0  0  0
   32.3890   21.0810   25.9290 C   0  0  0  0  0  0  0  0  0  0  0  0
   32.6170   22.5430   25.5630 C   0  0  0  0  0  0  0  0  0  0  0  0
   33.7690   23.1300   26.3780 C   0  0  0  0  0  0  0  0  0  0  0  0
   33.5490   22.8760   27.8710 C   0  0  0  0  0  0  0  0  0  0  0  0
   34.7100   23.3640   28.6840 C   0  0  0  0  0  0  0  0  0  0  0  0
   33.8850   24.5390   26.1460 O   0  0  0  0  0  0  0  0  0  0  0  0
   32.9090   22.6480   24.1680 O   0  0  0  0  0  0  0  0  0  0  0  0
   31.2080   20.5970   25.2950 O   0  0  0  0  0  0  0  0  0  0  0  0
   32.1840   19.4450   27.8630 C   0  0  0  0  0  0  0  0  0  0  0  0
   33.2550   18.6910   27.2890 O   0  0  0  0  0  0  0  0  0  0  0  0
   34.6720   23.9380   29.9200 N   0  0  0  0  0  0  0  0  0  0  0  0
   35.9500   24.2050   30.2840 C   0  0  0  0  0  0  0  0  0  0  0  0
   36.7570   23.8100   29.3230 N   0  0  0  0  0  0  0  0  0  0  0  0
   35.9790   23.2820   28.3130 N   0  0  0  0  0  0  0  0  0  0  0  0
   36.3890   24.8400   31.5290 C   0  0  0  0  0  0  0  0  0  0  0  0
   35.5670   25.0640   32.6370 C   0  0  0  0  0  0  0  0  0  0  0  0
   36.0650   25.6690   33.7790 C   0  0  0  0  0  0  0  0  0  0  0  0
   37.4160   26.0460   33.8760 C   0  0  0  0  0  0  0  0  0  0  0  0
   38.2050   25.8520   32.7370 C   0  0  0  0  0  0  0  0  0  0  0  0
   37.7150   25.2500   31.6040 C   0  0  0  0  0  0  0  0  0  0  0  0
   37.9900   26.7590   35.0550 C   0  0  0  0  0  0  0  0  0  0  0  0
   37.1900   27.3970   36.0120 C   0  0  0  0  0  0  0  0  0  0  0  0
   37.7500   28.1130   37.0600 C   0  0  0  0  0  0  0  0  0  0  0  0
   39.1290   28.2460   37.1730 C   0  0  0  0  0  0  0  0  0  0  0  0
   39.9330   27.6390   36.2210 C   0  0  0  0  0  0  0  0  0  0  0  0
   39.3770   26.9190   35.1820 C   0  0  0  0  0  0  0  0  0  0  0  0
   39.7570   29.0580   38.2770 C   0  0  0  0  0  0  0  0  0  0  0  0
   41.0110   29.0820   38.3450 O   0  0  0  0  0  0  0  0  0  0  0  0
   39.0070   29.7490   38.9940 O   0  0  0  0  0  0  0  0  0  0  0  0
  2  1  1  0
  6  1  1  0
  3  2  1  0
 11  2  1  0
  4  3  1  0
 10  3  1  0
  5  4  1  0
  9  4  1  0
  6  5  1  0
  8  5  1  0
  7  6  1  0
 13  7  1  0
 16  7  2  0
 12 11  1  0
 14 13  1  0
 15 14  2  0
 17 14  1  0
 16 15  1  0
 18 17  2  0
 22 17  1  0
 19 18  1  0
 20 19  2  0
 21 20  1  0
 23 20  1  0
 22 21  2  0
 24 23  2  0
 28 23  1  0
 25 24  1  0
 26 25  2  0
 27 26  1  0
 29 26  1  0
 28 27  2  0
 30 29  2  0
 31 29  1  0
A    1
O5'
A    2
C5'
A    3
C4'
A    4
C3'
A    5
C2'
A    6
C1'
A    7
C1
A    8
O2'
A    9
O3'
A   10
O4'
A   11
C6'
A   12
O6'
A   13
N5
A   14
C4
A   15
N3
A   16
N2
A   17
C6
A   18
C11
A   19
C10
A   20
C9
A   21
C8
A   22
C7
A   23
C12
A   24
C17
A   25
C16
A   26
C15
A   27
C14
A   28
C13
A   29
C18
A   30
O19
A   31
O20
M  END
>  <Id>  (152) 
6F3J_CKQ_A_903

>  <ChainId>  (152) 
A

>  <AsymId>  (152) 
D

>  <SeqNum>  (152) 
903

>  <Name>  (152) 
4-[4-[5-[(2~{S},3~{R},4~{R},5~{S},6~{R})-6-(hydroxymethyl)-3,4,5-tris(oxidanyl)oxan-2-yl]-4~{H}-1,2,4-triazol-3-yl]phenyl]benzoic acid

>  <SystematicName>  (152) 
4-[4-[5-[(2~{S},3~{R},4~{R},5~{S},6~{R})-6-(hydroxymethyl)-3,4,5-tris(oxidanyl)oxan-2-yl]-4~{H}-1,2,4-triazol-3-yl]phenyl]benzoic acid

>  <Synonyms>  (152) 


>  <Type>  (152) 
NON-POLYMER

>  <Formula>  (152) 
C21 H21 N3 O7

>  <ObservedFormula>  (152) 
C21 N3 O7

>  <MolecularWeight>  (152) 
427.407

>  <ModifiedDate>  (152) 
2018-02-23

>  <Parent>  (152) 


>  <OneLetterCode>  (152) 


>  <SubcomponentList>  (152) 


>  <AmbiguousFlag>  (152) 
N

>  <InsertionCode>  (152) 


>  <InstanceId>  (152) 
6F3J_CKQ_A_903

>  <ChemCompId>  (152) 
CKQ

>  <PdbId>  (152) 
6F3J

>  <ResidueNumber>  (152) 
903

>  <InChI>  (152) 
InChI=1S/C21H21N3O7/c25-9-14-15(26)16(27)17(28)18(31-14)20-22-19(23-24-20)12-5-1-10(2-6-12)11-3-7-13(8-4-11)21(29)30/h1-8,14-18,25-28H,9H2,(H,29,30)(H,22,23,24)/t14-,15-,16+,17-,18-/m1/s1

>  <InChIKey>  (152) 
UQZVJUDMJCTDEV-UYTYNIKBSA-N

>  <SMILES>  (152) 
c1cc(ccc1c2ccc(cc2)C(=O)O)c3[nH]c(nn3)[C@H]4[C@@H]([C@H]([C@@H]([C@H](O4)CO)O)O)O

>  <MissingHeavyAtoms>  (152) 
0

>  <Model>  (152) 
1

>  <AltIds>  (152) 


>  <pKI>  (152) 
5.35

>  <ChemblID>  (152) 
-

>  <standardized_canonical_smiles>  (152) 
O=C(O)c1ccc(-c2ccc(-c3nnc([C@@H]4O[C@H](CO)[C@@H](O)[C@H](O)[C@H]4O)[nH]3)cc2)cc1

$$$$
4Z5X_GDE_A_901
     RDKit          3D

 12 12  0  0  0  0  0  0  0  0999 V2000
   39.7710   38.4900   31.0340 O   0  0  0  0  0  0  0  0  0  0  0  0
   39.3500   37.4910   29.0870 O   0  0  0  0  0  0  0  0  0  0  0  0
   36.3610   33.6600   30.5450 O   0  0  0  0  0  0  0  0  0  0  0  0
   37.0550   36.2120   34.5710 O   0  0  0  0  0  0  0  0  0  0  0  0
   35.8950   34.0430   33.2680 O   0  0  0  0  0  0  0  0  0  0  0  0
   37.7260   35.5880   30.4800 C   0  0  0  0  0  0  0  0  0  0  0  0
   38.0690   36.8870   32.5250 C   0  0  0  0  0  0  0  0  0  0  0  0
   39.1800   37.6210   30.4060 C   0  0  0  0  0  0  0  0  0  0  0  0
   36.9130   34.7110   31.2000 C   0  0  0  0  0  0  0  0  0  0  0  0
   37.2640   36.0010   33.2330 C   0  0  0  0  0  0  0  0  0  0  0  0
   38.2970   36.6780   31.1500 C   0  0  0  0  0  0  0  0  0  0  0  0
   36.6810   34.9120   32.5670 C   0  0  0  0  0  0  0  0  0  0  0  0
  8  1  1  0
  8  2  2  0
  9  3  1  0
 10  4  1  0
 12  5  1  0
  9  6  2  0
 11  6  1  0
 10  7  1  0
 11  7  2  0
 11  8  1  0
 12  9  1  0
 12 10  2  0
A    1
OAA
A    2
OAB
A    3
OAC
A    4
OAD
A    5
OAE
A    6
CAF
A    7
CAG
A    8
CAH
A    9
CAI
A   10
CAJ
A   11
CAK
A   12
CAL
M  END
>  <Id>  (153) 
4Z5X_GDE_A_901

>  <ChainId>  (153) 
A

>  <AsymId>  (153) 
B

>  <SeqNum>  (153) 
901

>  <Name>  (153) 
3,4,5-trihydroxybenzoic acid

>  <SystematicName>  (153) 
3,4,5-tris(oxidanyl)benzoic acid

>  <Synonyms>  (153) 
Gallate

>  <Type>  (153) 
NON-POLYMER

>  <Formula>  (153) 
C7 H6 O5

>  <ObservedFormula>  (153) 
C7 O5

>  <MolecularWeight>  (153) 
170.12

>  <ModifiedDate>  (153) 
2013-05-17

>  <Parent>  (153) 


>  <OneLetterCode>  (153) 


>  <SubcomponentList>  (153) 


>  <AmbiguousFlag>  (153) 
N

>  <InsertionCode>  (153) 


>  <InstanceId>  (153) 
4Z5X_GDE_A_901

>  <ChemCompId>  (153) 
GDE

>  <PdbId>  (153) 
4Z5X

>  <ResidueNumber>  (153) 
901

>  <InChI>  (153) 
InChI=1S/C7H6O5/c8-4-1-3(7(11)12)2-5(9)6(4)10/h1-2,8-10H,(H,11,12)

>  <InChIKey>  (153) 
LNTHITQWFMADLM-UHFFFAOYSA-N

>  <SMILES>  (153) 
c1c(cc(c(c1O)O)O)C(=O)O

>  <MissingHeavyAtoms>  (153) 
0

>  <Model>  (153) 
1

>  <AltIds>  (153) 


>  <pKI>  (153) 
2.76

>  <ChemblID>  (153) 
-

>  <standardized_canonical_smiles>  (153) 
O=C(O)c1cc(O)c(O)c(O)c1

$$$$
1Z62_IAA_A_992
     RDKit          3D

 25 28  0  0  0  0  0  0  0  0999 V2000
   42.4780   41.2130   30.5720 O   0  0  0  0  0  0  0  0  0  0  0  0
   42.0710   41.0600   31.7090 C   0  0  0  0  0  0  0  0  0  0  0  0
   42.5320   41.8600   32.7120 O   0  0  0  0  0  0  0  0  0  0  0  0
   41.0750   39.9900   31.9930 C   0  0  0  0  0  0  0  0  0  0  0  0
   40.7220   39.2400   30.8040 O   0  0  0  0  0  0  0  0  0  0  0  0
   39.7840   38.2770   31.2750 N   0  0  0  0  0  0  0  0  0  0  0  0
   39.1660   37.3260   30.5760 C   0  0  0  0  0  0  0  0  0  0  0  0
   38.2240   36.3470   31.1300 C   0  0  0  0  0  0  0  0  0  0  0  0
   37.8340   36.2440   32.4350 C   0  0  0  0  0  0  0  0  0  0  0  0
   36.9100   35.2440   32.9490 C   0  0  0  0  0  0  0  0  0  0  0  0
   36.3240   34.3450   32.2960 O   0  0  0  0  0  0  0  0  0  0  0  0
   36.7880   35.4540   34.2780 N   0  0  0  0  0  0  0  0  0  0  0  0
   37.4910   36.4390   34.6920 C   0  0  0  0  0  0  0  0  0  0  0  0
   37.6560   36.9880   35.9850 C   0  0  0  0  0  0  0  0  0  0  0  0
   38.5220   38.1210   36.1820 C   0  0  0  0  0  0  0  0  0  0  0  0
   39.2100   38.6890   35.1070 C   0  0  0  0  0  0  0  0  0  0  0  0
   39.0360   38.1300   33.8520 C   0  0  0  0  0  0  0  0  0  0  0  0
   38.1900   37.0150   33.6300 C   0  0  0  0  0  0  0  0  0  0  0  0
   37.7990   35.5280   30.1470 N   0  0  0  0  0  0  0  0  0  0  0  0
   38.3700   35.8690   28.9650 C   0  0  0  0  0  0  0  0  0  0  0  0
   38.2070   35.2850   27.7100 C   0  0  0  0  0  0  0  0  0  0  0  0
   38.9000   35.8140   26.6170 C   0  0  0  0  0  0  0  0  0  0  0  0
   39.7670   36.9240   26.7720 C   0  0  0  0  0  0  0  0  0  0  0  0
   39.9410   37.5190   28.0340 C   0  0  0  0  0  0  0  0  0  0  0  0
   39.2290   36.9900   29.1380 C   0  0  0  0  0  0  0  0  0  0  0  0
  2  1  1  0
  3  2  2  0
  4  2  1  0
  5  4  1  0
  6  5  1  0
  7  6  2  0
  8  7  1  0
 25  7  1  0
  9  8  2  0
 19  8  1  0
 10  9  1  0
 18  9  1  0
 11 10  2  0
 12 10  1  0
 13 12  2  0
 14 13  1  0
 18 13  1  0
 15 14  1  0
 16 15  2  0
 17 16  1  0
 18 17  2  0
 20 19  2  0
 21 20  1  0
 25 20  1  0
 22 21  1  0
 23 22  2  0
 24 23  1  0
 25 24  2  0
A    1
O4
A    2
C18
A    3
O3
A    4
C17
A    5
O2
A    6
N3
A    7
C10
A    8
C9
A    9
C8
A   10
C7
A   11
O1
A   12
N1
A   13
C1
A   14
C2
A   15
C3
A   16
C4
A   17
C5
A   18
C6
A   19
N2
A   20
C11
A   21
C16
A   22
C15
A   23
C14
A   24
C13
A   25
C12
M  END
>  <Id>  (154) 
1Z62_IAA_A_992

>  <ChainId>  (154) 
A

>  <AsymId>  (154) 
E

>  <SeqNum>  (154) 
992

>  <Name>  (154) 
({[(3E)-2'-OXO-2',7'-DIHYDRO-2,3'-BIINDOL-3(7H)-YLIDENE]AMINO}OXY)ACETIC ACID

>  <SystematicName>  (154) 
2-[[(2Z)-2-(2-oxo-7H-indol-3-ylidene)-7H-indol-3-ylidene]amino]oxyethanoic acid

>  <Synonyms>  (154) 
2-{O-[2'-(2-OXO-(2H3H)INDOLE-3-YLIDENE)-(2'H3'H)INDOLE-3'-YLIDENE]-AMINOOXY}-ACETATE

>  <Type>  (154) 
NON-POLYMER

>  <Formula>  (154) 
C18 H13 N3 O4

>  <ObservedFormula>  (154) 
C18 N3 O4

>  <MolecularWeight>  (154) 
335.314

>  <ModifiedDate>  (154) 
2011-06-04

>  <Parent>  (154) 


>  <OneLetterCode>  (154) 


>  <SubcomponentList>  (154) 


>  <AmbiguousFlag>  (154) 
N

>  <InsertionCode>  (154) 


>  <InstanceId>  (154) 
1Z62_IAA_A_992

>  <ChemCompId>  (154) 
IAA

>  <PdbId>  (154) 
1Z62

>  <ResidueNumber>  (154) 
992

>  <InChI>  (154) 
InChI=1S/C18H13N3O4/c22-14(23)9-25-21-16-11-6-2-4-8-13(11)19-17(16)15-10-5-1-3-7-12(10)20-18(15)24/h1-6H,7-9H2,(H,22,23)/b17-15-,21-16+

>  <InChIKey>  (154) 
BFQRPTKOSYMPOL-LALPNIDTSA-N

>  <SMILES>  (154) 
C1C=CC=C\2C1=N/C(=C\3/C4=CC=CCC4=NC3=O)/C2=N/OCC(=O)O

>  <MissingHeavyAtoms>  (154) 
0

>  <Model>  (154) 
1

>  <AltIds>  (154) 


>  <pKI>  (154) 
4.8

>  <ChemblID>  (154) 
-

>  <standardized_canonical_smiles>  (154) 
O=C(O)CO/N=C1\C2=CC=CCC2=N\C1=C1/C(=O)N=C2CC=CC=C21

$$$$
2F3P_4GP_A_998
     RDKit          3D

 17 17  0  0  0  0  0  0  0  0999 V2000
   33.4410   22.7720   27.7140 C   0  0  0  0  0  0  0  0  0  0  0  0
   33.7480   23.0250   26.1820 C   0  0  0  0  0  0  0  0  0  0  0  0
   33.8850   24.4570   25.9180 O   0  0  0  0  0  0  0  0  0  0  0  0
   32.5690   22.4170   25.3570 C   0  0  0  0  0  0  0  0  0  0  0  0
   32.8150   22.5970   23.9230 O   0  0  0  0  0  0  0  0  0  0  0  0
   32.4460   20.9220   25.6890 C   0  0  0  0  0  0  0  0  0  0  0  0
   31.3600   20.3500   24.9620 O   0  0  0  0  0  0  0  0  0  0  0  0
   32.2000   20.7320   27.2550 C   0  0  0  0  0  0  0  0  0  0  0  0
   33.2960   21.3350   28.0110 O   0  0  0  0  0  0  0  0  0  0  0  0
   32.1020   19.2170   27.6320 C   0  0  0  0  0  0  0  0  0  0  0  0
   33.1930   18.4510   27.0820 O   0  0  0  0  0  0  0  0  0  0  0  0
   34.5110   23.3080   28.4890 N   0  0  0  0  0  0  0  0  0  0  0  0
   34.2030   24.0350   29.5830 C   0  0  0  0  0  0  0  0  0  0  0  0
   35.3470   24.5710   30.3480 C   0  0  0  0  0  0  0  0  0  0  0  0
   33.0270   24.2560   29.9440 O   0  0  0  0  0  0  0  0  0  0  0  0
   35.2110   25.5390   31.1310 O   0  0  0  0  0  0  0  0  0  0  0  0
   36.4650   24.0370   30.1850 O   0  0  0  0  0  0  0  0  0  0  0  0
  2  1  1  0
  9  1  1  0
 12  1  1  0
  3  2  1  0
  4  2  1  0
  5  4  1  0
  6  4  1  0
  7  6  1  0
  8  6  1  0
  9  8  1  0
 10  8  1  0
 11 10  1  0
 13 12  1  0
 14 13  1  0
 15 13  2  0
 16 14  1  0
 17 14  2  0
A    1
C1
A    2
C2
A    3
O2
A    4
C3
A    5
O3
A    6
C4
A    7
O4
A    8
C5
A    9
O5
A   10
C6
A   11
O6
A   12
N1
A   13
C7
A   14
C8
A   15
O7
A   16
O8
A   17
O9
M  END
>  <Id>  (155) 
2F3P_4GP_A_998

>  <ChainId>  (155) 
A

>  <AsymId>  (155) 
C

>  <SeqNum>  (155) 
998

>  <Name>  (155) 
N-(BETA-D-GLUCOPYRANOSYL)OXAMIC ACID

>  <SystematicName>  (155) 
2-oxo-2-[[(2R,3R,4S,5S,6R)-3,4,5-trihydroxy-6-(hydroxymethyl)oxan-2-yl]amino]ethanoic acid

>  <Synonyms>  (155) 


>  <Type>  (155) 
NON-POLYMER

>  <Formula>  (155) 
C8 H13 N O8

>  <ObservedFormula>  (155) 
C8 N O8

>  <MolecularWeight>  (155) 
251.191

>  <ModifiedDate>  (155) 
2011-06-04

>  <Parent>  (155) 


>  <OneLetterCode>  (155) 


>  <SubcomponentList>  (155) 


>  <AmbiguousFlag>  (155) 
N

>  <InsertionCode>  (155) 


>  <InstanceId>  (155) 
2F3P_4GP_A_998

>  <ChemCompId>  (155) 
4GP

>  <PdbId>  (155) 
2F3P

>  <ResidueNumber>  (155) 
998

>  <InChI>  (155) 
InChI=1S/C8H13NO8/c10-1-2-3(11)4(12)5(13)7(17-2)9-6(14)8(15)16/h2-5,7,10-13H,1H2,(H,9,14)(H,15,16)/t2-,3-,4+,5-,7-/m1/s1

>  <InChIKey>  (155) 
ZSURXDJFFBVRAT-UHKLXPPTSA-N

>  <SMILES>  (155) 
C([C@@H]1[C@H]([C@@H]([C@H]([C@@H](O1)NC(=O)C(=O)O)O)O)O)O

>  <MissingHeavyAtoms>  (155) 
0

>  <Model>  (155) 
1

>  <AltIds>  (155) 


>  <pKI>  (155) 
3.15

>  <ChemblID>  (155) 
-

>  <standardized_canonical_smiles>  (155) 
O=C(O)C(=O)N[C@@H]1O[C@H](CO)[C@@H](O)[C@H](O)[C@H]1O

$$$$
4GPB_PLP_A_999
     RDKit          3D

 15 15  0  0  0  0  0  0  0  0999 V2000
   24.6550   25.6040   30.2620 N   0  0  0  0  0  0  0  0  0  0  0  0
   23.5690   24.8080   30.4850 C   0  0  0  0  0  0  0  0  0  0  0  0
   22.5260   25.2260   31.4550 C   0  0  0  0  0  0  0  0  0  0  0  0
   23.4010   23.6510   29.8070 C   0  0  0  0  0  0  0  0  0  0  0  0
   22.1810   23.0200   29.8680 O   0  0  0  0  0  0  0  0  0  0  0  0
   24.3370   23.2730   28.8930 C   0  0  0  0  0  0  0  0  0  0  0  0
   24.1000   22.0330   28.0360 C   0  0  0  0  0  0  0  0  0  0  0  0
   25.4330   24.0840   28.6490 C   0  0  0  0  0  0  0  0  0  0  0  0
   25.5830   25.2400   29.3380 C   0  0  0  0  0  0  0  0  0  0  0  0
   26.3800   23.8050   27.4660 C   0  0  0  0  0  0  0  0  0  0  0  0
   26.0980   24.6460   26.3240 O   0  0  0  0  0  0  0  0  0  0  0  0
   27.0560   24.7820   25.0860 P   0  0  0  0  0  0  0  0  0  0  0  0
   27.6440   23.4780   24.7820 O   0  0  0  0  0  0  0  0  0  0  0  0
   26.3250   25.5270   24.0390 O   0  0  0  0  0  0  0  0  0  0  0  0
   28.2720   25.6500   25.6140 O   0  0  0  0  0  0  0  0  0  0  0  0
  2  1  2  0
  9  1  1  0
  3  2  1  0
  4  2  1  0
  5  4  1  0
  6  4  2  0
  7  6  1  0
  8  6  1  0
  9  8  2  0
 10  8  1  0
 11 10  1  0
 12 11  1  0
 13 12  2  0
 14 12  1  0
 15 12  1  0
A    1
N1
A    2
C2
A    3
C2A
A    4
C3
A    5
O3
A    6
C4
A    7
C4A
A    8
C5
A    9
C6
A   10
C5A
A   11
O4P
A   12
P
A   13
O1P
A   14
O2P
A   15
O3P
M  END
>  <Id>  (156) 
4GPB_PLP_A_999

>  <ChainId>  (156) 
A

>  <AsymId>  (156) 
D

>  <SeqNum>  (156) 
999

>  <Name>  (156) 
PYRIDOXAL-5'-PHOSPHATE

>  <SystematicName>  (156) 
(5-hydroxy-4-methanoyl-6-methyl-pyridin-3-yl)methyl dihydrogen phosphate

>  <Synonyms>  (156) 
VITAMIN B6 Phosphate

>  <Type>  (156) 
NON-POLYMER

>  <Formula>  (156) 
C8 H10 N O6 P

>  <ObservedFormula>  (156) 
P C8 N O5

>  <MolecularWeight>  (156) 
247.142

>  <ModifiedDate>  (156) 
2011-06-04

>  <Parent>  (156) 


>  <OneLetterCode>  (156) 


>  <SubcomponentList>  (156) 


>  <AmbiguousFlag>  (156) 
N

>  <InsertionCode>  (156) 


>  <InstanceId>  (156) 
4GPB_PLP_A_999

>  <ChemCompId>  (156) 
PLP

>  <PdbId>  (156) 
4GPB

>  <ResidueNumber>  (156) 
999

>  <InChI>  (156) 
InChI=1S/C8H10NO6P/c1-5-8(11)7(3-10)6(2-9-5)4-15-16(12,13)14/h2-3,11H,4H2,1H3,(H2,12,13,14)

>  <InChIKey>  (156) 
NGVDGCNFYWLIFO-UHFFFAOYSA-N

>  <MissingHeavyAtoms>  (156) 
1

>  <Model>  (156) 
1

>  <AltIds>  (156) 


>  <pKI>  (156) 
3.15

>  <ChemblID>  (156) 
-

>  <standardized_canonical_smiles>  (156) 
O=C(O)C(=O)N[C@@H]1O[C@H](CO)[C@@H](O)[C@H](O)[C@H]1O

$$$$
4GPB_GFP_A_901
     RDKit          3D

 16 16  0  0  0  0  0  0  0  0999 V2000
   28.5420    3.8380   52.9780 C   0  0  0  0  0  0  0  0  0  0  0  0
   28.4010    2.8170   54.1530 C   0  0  0  0  0  0  0  0  0  0  0  0
   27.7390    1.5530   53.5710 C   0  0  0  0  0  0  0  0  0  0  0  0
   26.3210    1.9200   53.0610 C   0  0  0  0  0  0  0  0  0  0  0  0
   26.4180    3.0370   51.9480 C   0  0  0  0  0  0  0  0  0  0  0  0
   25.0400    3.5570   51.3710 C   0  0  0  0  0  0  0  0  0  0  0  0
   29.3450    3.3110   51.8790 O   0  0  0  0  0  0  0  0  0  0  0  0
   27.6660    0.4680   54.5170 O   0  0  0  0  0  0  0  0  0  0  0  0
   25.6560    0.7460   52.5770 O   0  0  0  0  0  0  0  0  0  0  0  0
   27.1730    4.1800   52.5200 O   0  0  0  0  0  0  0  0  0  0  0  0
   23.9990    3.5700   52.3760 O   0  0  0  0  0  0  0  0  0  0  0  0
   29.5080    2.5110   54.9070 F   0  0  0  0  0  0  0  0  0  0  0  0
   30.9370    3.1800   51.8210 P   0  0  0  0  0  0  0  0  0  0  0  0
   31.3510    2.3240   52.9630 O   0  0  0  0  0  0  0  0  0  0  0  0
   31.3900    2.6140   50.5120 O   0  0  0  0  0  0  0  0  0  0  0  0
   31.4430    4.6100   51.9550 O   0  0  0  0  0  0  0  0  0  0  0  0
  2  1  1  0
  7  1  1  0
 10  1  1  0
  3  2  1  0
 12  2  1  0
  4  3  1  0
  8  3  1  0
  5  4  1  0
  9  4  1  0
  6  5  1  0
 10  5  1  0
 11  6  1  0
 13  7  1  0
 14 13  2  0
 15 13  1  0
 16 13  1  0
A    1
C1
A    2
C2
A    3
C3
A    4
C4
A    5
C5
A    6
C6
A    7
O1
A    8
O3
A    9
O4
A   10
O5
A   11
O6
A   12
F2
A   13
P
A   14
O1P
A   15
O2P
A   16
O3P
M  END
>  <Id>  (157) 
4GPB_GFP_A_901

>  <ChainId>  (157) 
A

>  <AsymId>  (157) 
C

>  <SeqNum>  (157) 
901

>  <Name>  (157) 
2-DEOXY-2-FLUORO-ALPHA-D-GLUCOSE-1-PHOSPHATE

>  <SystematicName>  (157) 
[(2R,3R,4S,5S,6R)-3-fluoro-4,5-dihydroxy-6-(hydroxymethyl)oxan-2-yl] dihydrogen phosphate

>  <Synonyms>  (157) 


>  <Type>  (157) 
D-SACCHARIDE

>  <Formula>  (157) 
C6 H12 F O8 P

>  <ObservedFormula>  (157) 
P C6 F O8

>  <MolecularWeight>  (157) 
262.127

>  <ModifiedDate>  (157) 
2011-06-04

>  <Parent>  (157) 


>  <OneLetterCode>  (157) 


>  <SubcomponentList>  (157) 


>  <AmbiguousFlag>  (157) 
N

>  <InsertionCode>  (157) 


>  <InstanceId>  (157) 
4GPB_GFP_A_901

>  <ChemCompId>  (157) 
GFP

>  <PdbId>  (157) 
4GPB

>  <ResidueNumber>  (157) 
901

>  <InChI>  (157) 
InChI=1S/C6H12FO8P/c7-3-5(10)4(9)2(1-8)14-6(3)15-16(11,12)13/h2-6,8-10H,1H2,(H2,11,12,13)/t2-,3-,4-,5-,6-/m1/s1

>  <InChIKey>  (157) 
LXEHNDWFCMGWAY-QZABAPFNSA-N

>  <SMILES>  (157) 
C([C@@H]1[C@H]([C@@H]([C@H]([C@H](O1)OP(=O)(O)O)F)O)O)O

>  <MissingHeavyAtoms>  (157) 
0

>  <Model>  (157) 
1

>  <AltIds>  (157) 


>  <pKI>  (157) 
3.15

>  <ChemblID>  (157) 
-

>  <standardized_canonical_smiles>  (157) 
O=C(O)C(=O)N[C@@H]1O[C@H](CO)[C@@H](O)[C@H](O)[C@H]1O

$$$$
2QRM_M09_A_998
     RDKit          3D

 24 26  0  0  0  0  0  0  0  0999 V2000
   36.6780   24.5020   31.1920 C   0  0  0  0  0  0  0  0  0  0  0  0
   37.3420   24.9560   32.3400 C   0  0  0  0  0  0  0  0  0  0  0  0
   36.6090   25.4560   33.4240 C   0  0  0  0  0  0  0  0  0  0  0  0
   37.2180   25.8980   34.5350 N   0  0  0  0  0  0  0  0  0  0  0  0
   38.6190   26.1100   34.5570 O   0  0  0  0  0  0  0  0  0  0  0  0
   36.4580   26.1600   35.7100 O   0  0  0  0  0  0  0  0  0  0  0  0
   35.2160   25.4980   33.3520 C   0  0  0  0  0  0  0  0  0  0  0  0
   34.5570   25.0440   32.2090 C   0  0  0  0  0  0  0  0  0  0  0  0
   35.2780   24.5430   31.1280 C   0  0  0  0  0  0  0  0  0  0  0  0
   34.5840   24.1120   29.9890 C   0  0  0  0  0  0  0  0  0  0  0  0
   35.1790   23.4320   28.7600 C   0  0  0  0  0  0  0  0  0  0  0  0
   33.2710   24.2520   29.7820 N   0  0  0  0  0  0  0  0  0  0  0  0
   32.8500   23.7430   28.5110 O   0  0  0  0  0  0  0  0  0  0  0  0
   33.9420   22.9760   27.9790 C   0  0  0  0  0  0  0  0  0  0  0  0
   33.7100   21.5730   28.2340 O   0  0  0  0  0  0  0  0  0  0  0  0
   32.5160   21.0510   27.5850 C   0  0  0  0  0  0  0  0  0  0  0  0
   32.3730   19.5830   28.0010 C   0  0  0  0  0  0  0  0  0  0  0  0
   33.4110   18.8130   27.3890 O   0  0  0  0  0  0  0  0  0  0  0  0
   32.6240   21.2220   26.0500 C   0  0  0  0  0  0  0  0  0  0  0  0
   31.4130   20.7890   25.4240 O   0  0  0  0  0  0  0  0  0  0  0  0
   32.9120   22.6730   25.6560 C   0  0  0  0  0  0  0  0  0  0  0  0
   33.1810   22.7210   24.2440 O   0  0  0  0  0  0  0  0  0  0  0  0
   34.1110   23.2240   26.4560 C   0  0  0  0  0  0  0  0  0  0  0  0
   34.3030   24.6190   26.1700 O   0  0  0  0  0  0  0  0  0  0  0  0
  2  1  2  0
  9  1  1  0
  3  2  1  0
  4  3  1  0
  7  3  2  0
  5  4  2  0
  6  4  1  0
  8  7  1  0
  9  8  2  0
 10  9  1  0
 11 10  1  0
 12 10  1  0
 14 11  1  0
 13 12  1  0
 14 13  1  0
 15 14  1  0
 23 14  1  0
 16 15  1  0
 17 16  1  0
 19 16  1  0
 18 17  1  0
 20 19  1  0
 21 19  1  0
 22 21  1  0
 23 21  1  0
 24 23  1  0
M  CHG  2   4   1   6  -1
A    1
C10
A    2
C11
A    3
C12
A    4
N2
A    5
O9
A    6
O8
A    7
C13
A    8
C14
A    9
C9
A   10
C8
A   11
C7
A   12
N1
A   13
O7
A   14
C1
A   15
O5
A   16
C5
A   17
C6
A   18
O6
A   19
C4
A   20
O4
A   21
C3
A   22
O3
A   23
C2
A   24
O2
M  END
>  <Id>  (158) 
2QRM_M09_A_998

>  <ChainId>  (158) 
A

>  <AsymId>  (158) 
B

>  <SeqNum>  (158) 
998

>  <Name>  (158) 
(3S,5R,7R,8S,9S,10R)-7-(hydroxymethyl)-3-(4-nitrophenyl)-1,6-dioxa-2-azaspiro[4.5]decane-8,9,10-triol

>  <SystematicName>  (158) 
(5R,6R,7S,8S,9R)-9-(hydroxymethyl)-3-(4-nitrophenyl)-1,10-dioxa-2-azaspiro[4.5]decane-6,7,8-triol

>  <Synonyms>  (158) 
(1R)-3'-(4-nitrophenyl)-spiro[1,5-anhydro-D-glucitol-1,5'-isoxazoline]

>  <Type>  (158) 
NON-POLYMER

>  <Formula>  (158) 
C14 H18 N2 O8

>  <ObservedFormula>  (158) 
C14 N2 O8

>  <MolecularWeight>  (158) 
342.301

>  <ModifiedDate>  (158) 
2011-06-04

>  <Parent>  (158) 


>  <OneLetterCode>  (158) 


>  <SubcomponentList>  (158) 


>  <AmbiguousFlag>  (158) 


>  <InsertionCode>  (158) 


>  <InstanceId>  (158) 
2QRM_M09_A_998

>  <ChemCompId>  (158) 
M09

>  <PdbId>  (158) 
2QRM

>  <ResidueNumber>  (158) 
998

>  <InChI>  (158) 
InChI=1S/C14H18N2O8/c17-6-10-11(18)12(19)13(20)14(23-10)5-9(15-24-14)7-1-3-8(4-2-7)16(21)22/h1-4,9-13,15,17-20H,5-6H2/t9-,10+,11+,12-,13+,14+/m0/s1

>  <InChIKey>  (158) 
FYUHHVCQKVTVLN-GMDXDWKASA-N

>  <SMILES>  (158) 
c1cc(ccc1C2C[C@]3([C@@H]([C@H]([C@@H]([C@H](O3)CO)O)O)O)ON2)[N+](=O)[O-]

>  <MissingHeavyAtoms>  (158) 
0

>  <Model>  (158) 
1

>  <AltIds>  (158) 


>  <pKI>  (158) 
4.03

>  <ChemblID>  (158) 
-

>  <standardized_canonical_smiles>  (158) 
O=[N+]([O-])c1ccc(C2C[C@]3(ON2)O[C@H](CO)[C@@H](O)[C@H](O)[C@H]3O)cc1

$$$$
5OX0_B1H_A_901
     RDKit          3D

 25 27  0  0  0  0  0  0  0  0999 V2000
   34.7490   23.4850   28.8830 C   0  0  0  0  0  0  0  0  0  0  0  0
   35.9160   24.3000   30.5170 C   0  0  0  0  0  0  0  0  0  0  0  0
   36.1340   24.9400   31.8460 C   0  0  0  0  0  0  0  0  0  0  0  0
   36.0580   23.3880   28.5670 N   0  0  0  0  0  0  0  0  0  0  0  0
   37.6710   25.9650   33.3840 C   0  0  0  0  0  0  0  0  0  0  0  0
   36.8120   23.9210   29.6150 N   0  0  0  0  0  0  0  0  0  0  0  0
   36.6490   26.1150   34.3220 C   0  0  0  0  0  0  0  0  0  0  0  0
   37.4220   25.3700   32.1540 C   0  0  0  0  0  0  0  0  0  0  0  0
   38.2050   26.9660   35.9520 O   0  0  0  0  0  0  0  0  0  0  0  0
   36.9070   26.7250   35.5740 N   0  0  0  0  0  0  0  0  0  0  0  0
   35.8820   27.0940   36.4210 O   0  0  0  0  0  0  0  0  0  0  0  0
   35.3660   25.6900   34.0170 C   0  0  0  0  0  0  0  0  0  0  0  0
   35.1130   25.0860   32.7880 C   0  0  0  0  0  0  0  0  0  0  0  0
   34.6490   24.0570   30.0920 N   0  0  0  0  0  0  0  0  0  0  0  0
   33.6340   23.0130   28.0430 C   0  0  0  0  0  0  0  0  0  0  0  0
   33.5300   21.5970   28.2380 O   0  0  0  0  0  0  0  0  0  0  0  0
   33.9130   23.2690   26.5470 C   0  0  0  0  0  0  0  0  0  0  0  0
   34.0690   24.6710   26.2900 O   0  0  0  0  0  0  0  0  0  0  0  0
   32.7880   22.7150   25.6660 C   0  0  0  0  0  0  0  0  0  0  0  0
   33.1560   22.7870   24.2760 O   0  0  0  0  0  0  0  0  0  0  0  0
   32.5290   21.2600   26.0060 C   0  0  0  0  0  0  0  0  0  0  0  0
   31.3320   20.7780   25.3570 O   0  0  0  0  0  0  0  0  0  0  0  0
   32.4120   21.0470   27.5340 C   0  0  0  0  0  0  0  0  0  0  0  0
   32.2820   19.5830   27.8970 C   0  0  0  0  0  0  0  0  0  0  0  0
   33.3070   18.7700   27.3300 O   0  0  0  0  0  0  0  0  0  0  0  0
  4  1  1  0
 14  1  2  0
 15  1  1  0
  3  2  1  0
  6  2  2  0
 14  2  1  0
  8  3  2  0
 13  3  1  0
  6  4  1  0
  7  5  2  0
  8  5  1  0
 10  7  1  0
 12  7  1  0
 10  9  1  0
 11 10  2  0
 13 12  2  0
 16 15  1  0
 17 15  1  0
 23 16  1  0
 18 17  1  0
 19 17  1  0
 20 19  1  0
 21 19  1  0
 22 21  1  0
 23 21  1  0
 24 23  1  0
 25 24  1  0
M  CHG  1  10   1
A    1
C1
A    2
C4
A    3
C6
A    4
N2
A    5
C8
A    6
N3
A    7
C9
A    8
C7
A    9
O13
A   10
N12
A   11
O14
A   12
C10
A   13
C11
A   14
N5
A   15
C1'
A   16
O5'
A   17
C2'
A   18
O2'
A   19
C3'
A   20
O3'
A   21
C4'
A   22
O4'
A   23
C5'
A   24
C6'
A   25
O6'
M  END
>  <Id>  (159) 
5OX0_B1H_A_901

>  <ChainId>  (159) 
A

>  <AsymId>  (159) 
B

>  <SeqNum>  (159) 
901

>  <Name>  (159) 
[4-[5-[(2~{S},3~{R},4~{R},5~{S},6~{R})-6-(hydroxymethyl)-3,4,5-tris(oxidanyl)oxan-2-yl]-1~{H}-1,2,4-triazol-3-yl]phenyl]-oxidanyl-oxidanylidene-azanium

>  <SystematicName>  (159) 
[4-[5-[(2~{S},3~{R},4~{R},5~{S},6~{R})-6-(hydroxymethyl)-3,4,5-tris(oxidanyl)oxan-2-yl]-1~{H}-1,2,4-triazol-3-yl]phenyl]-oxidanyl-oxidanylidene-azanium

>  <Synonyms>  (159) 


>  <Type>  (159) 
NON-POLYMER

>  <Formula>  (159) 
C14 H17 N4 O7

>  <ObservedFormula>  (159) 
C14 N4 O7

>  <MolecularWeight>  (159) 
353.307

>  <ModifiedDate>  (159) 
2018-02-23

>  <Parent>  (159) 


>  <OneLetterCode>  (159) 


>  <SubcomponentList>  (159) 


>  <AmbiguousFlag>  (159) 
N

>  <InsertionCode>  (159) 


>  <InstanceId>  (159) 
5OX0_B1H_A_901

>  <ChemCompId>  (159) 
B1H

>  <PdbId>  (159) 
5OX0

>  <ResidueNumber>  (159) 
901

>  <InChI>  (159) 
InChI=1S/C14H17N4O7/c19-5-8-9(20)10(21)11(22)12(25-8)14-15-13(16-17-14)6-1-3-7(4-2-6)18(23)24/h1-4,8-12,19-22H,5H2,(H,23,24)(H,15,16,17)/q+1/t8-,9-,10+,11-,12-/m1/s1

>  <InChIKey>  (159) 
UCUAXDZFQJPZOC-RMPHRYRLSA-N

>  <SMILES>  (159) 
c1cc(ccc1c2nc([nH]n2)[C@H]3[C@@H]([C@H]([C@@H]([C@H](O3)CO)O)O)O)[N+](=O)O

>  <MissingHeavyAtoms>  (159) 
0

>  <Model>  (159) 
1

>  <AltIds>  (159) 


>  <pKI>  (159) 
4.47

>  <ChemblID>  (159) 
-

>  <standardized_canonical_smiles>  (159) 
O=[N+](O)c1ccc(-c2n[nH]c([C@@H]3O[C@H](CO)[C@@H](O)[C@H](O)[C@H]3O)n2)cc1

$$$$
2PRI_D6G_A_930
     RDKit          3D

 15 15  0  0  0  0  0  0  0  0999 V2000
   25.0610    5.5700   50.7420 C   0  0  0  0  0  0  0  0  0  0  0  0
   23.8000    4.6460   50.9740 C   0  0  0  0  0  0  0  0  0  0  0  0
   24.0260    3.6410   52.1390 C   0  0  0  0  0  0  0  0  0  0  0  0
   25.3430    2.8390   51.9490 C   0  0  0  0  0  0  0  0  0  0  0  0
   26.5730    3.8370   51.7010 C   0  0  0  0  0  0  0  0  0  0  0  0
   27.8140    3.0880   51.2980 C   0  0  0  0  0  0  0  0  0  0  0  0
   25.2540    6.5610   51.7570 O   0  0  0  0  0  0  0  0  0  0  0  0
   22.9590    2.7130   52.2730 O   0  0  0  0  0  0  0  0  0  0  0  0
   25.5400    2.0550   53.1290 O   0  0  0  0  0  0  0  0  0  0  0  0
   26.2690    4.7480   50.6160 O   0  0  0  0  0  0  0  0  0  0  0  0
   28.9460    3.9110   51.4130 O   0  0  0  0  0  0  0  0  0  0  0  0
   30.4890    3.3820   51.3260 P   0  0  0  0  0  0  0  0  0  0  0  0
   30.6510    2.4330   52.4850 O   0  0  0  0  0  0  0  0  0  0  0  0
   31.4090    4.5450   51.5030 O   0  0  0  0  0  0  0  0  0  0  0  0
   30.5510    2.8050   49.9090 O   0  0  0  0  0  0  0  0  0  0  0  0
  2  1  1  0
  7  1  1  0
 10  1  1  0
  3  2  1  0
  4  3  1  0
  8  3  1  0
  5  4  1  0
  9  4  1  0
  6  5  1  0
 10  5  1  0
 11  6  1  0
 12 11  1  0
 13 12  2  0
 14 12  1  0
 15 12  1  0
A    1
C1
A    2
C2
A    3
C3
A    4
C4
A    5
C5
A    6
C6
A    7
O1
A    8
O3
A    9
O4
A   10
O5
A   11
O6
A   12
P
A   13
O1P
A   14
O2P
A   15
O3P
M  END
>  <Id>  (160) 
2PRI_D6G_A_930

>  <ChainId>  (160) 
A

>  <AsymId>  (160) 
B

>  <SeqNum>  (160) 
930

>  <Name>  (160) 
2-deoxy-6-O-phosphono-alpha-D-arabino-hexopyranose

>  <SystematicName>  (160) 
[(2R,3S,4R,6S)-3,4,6-tris(oxidanyl)oxan-2-yl]methyl dihydrogen phosphate

>  <Synonyms>  (160) 
2-deoxy-alpha-D-glucopyranose 6-phosphate

>  <Type>  (160) 
SACCHARIDE

>  <Formula>  (160) 
C6 H13 O8 P

>  <ObservedFormula>  (160) 
P C6 O8

>  <MolecularWeight>  (160) 
244.136

>  <ModifiedDate>  (160) 
2012-08-20

>  <Parent>  (160) 


>  <OneLetterCode>  (160) 


>  <SubcomponentList>  (160) 


>  <AmbiguousFlag>  (160) 
N

>  <InsertionCode>  (160) 


>  <InstanceId>  (160) 
2PRI_D6G_A_930

>  <ChemCompId>  (160) 
D6G

>  <PdbId>  (160) 
2PRI

>  <ResidueNumber>  (160) 
930

>  <InChI>  (160) 
InChI=1S/C6H13O8P/c7-3-1-5(8)14-4(6(3)9)2-13-15(10,11)12/h3-9H,1-2H2,(H2,10,11,12)/t3-,4-,5+,6+/m1/s1

>  <InChIKey>  (160) 
UQJFZAAGZAYVKZ-ZXXMMSQZSA-N

>  <SMILES>  (160) 
C1[C@H]([C@@H]([C@H](O[C@@H]1O)COP(=O)(O)O)O)O

>  <MissingHeavyAtoms>  (160) 
0

>  <Model>  (160) 
1

>  <AltIds>  (160) 


>  <pKI>  (160) 
2.91

>  <ChemblID>  (160) 
-

>  <standardized_canonical_smiles>  (160) 
O=P(O)(O)OC[C@H]1O[C@H](O)C[C@@H](O)[C@@H]1O

$$$$
4MI3_26R_A_901
     RDKit          3D

 26 27  0  0  0  0  0  0  0  0999 V2000
   40.7160   27.1100   34.9900 C   0  0  0  0  0  0  0  0  0  0  0  0
   39.9490   28.1510   34.1610 C   0  0  0  0  0  0  0  0  0  0  0  0
   39.4910   29.2820   35.0850 C   0  0  0  0  0  0  0  0  0  0  0  0
   38.8340   27.5850   33.4280 C   0  0  0  0  0  0  0  0  0  0  0  0
   38.7170   27.8910   32.0590 C   0  0  0  0  0  0  0  0  0  0  0  0
   37.6830   27.3810   31.2730 C   0  0  0  0  0  0  0  0  0  0  0  0
   37.8630   26.7430   34.0060 C   0  0  0  0  0  0  0  0  0  0  0  0
   36.8090   26.2340   33.2290 C   0  0  0  0  0  0  0  0  0  0  0  0
   36.7260   26.5470   31.8510 C   0  0  0  0  0  0  0  0  0  0  0  0
   35.6780   26.0620   31.0320 C   0  0  0  0  0  0  0  0  0  0  0  0
   35.9600   24.6980   30.3560 C   0  0  0  0  0  0  0  0  0  0  0  0
   36.6460   23.7510   31.3130 C   0  0  0  0  0  0  0  0  0  0  0  0
   34.6410   24.0690   29.8210 C   0  0  0  0  0  0  0  0  0  0  0  0
   33.5510   24.1720   30.3810 O   0  0  0  0  0  0  0  0  0  0  0  0
   34.7920   23.4460   28.6610 N   0  0  0  0  0  0  0  0  0  0  0  0
   33.6690   22.8650   27.9410 C   0  0  0  0  0  0  0  0  0  0  0  0
   33.5760   21.4590   28.2000 O   0  0  0  0  0  0  0  0  0  0  0  0
   32.3910   20.9380   27.5810 C   0  0  0  0  0  0  0  0  0  0  0  0
   32.2450   19.4920   28.0210 C   0  0  0  0  0  0  0  0  0  0  0  0
   33.2840   18.7650   27.3500 O   0  0  0  0  0  0  0  0  0  0  0  0
   32.4710   21.0910   26.0200 C   0  0  0  0  0  0  0  0  0  0  0  0
   31.2610   20.6190   25.3920 O   0  0  0  0  0  0  0  0  0  0  0  0
   32.7160   22.5500   25.5990 C   0  0  0  0  0  0  0  0  0  0  0  0
   33.0170   22.6200   24.1890 O   0  0  0  0  0  0  0  0  0  0  0  0
   33.9140   23.1180   26.4230 C   0  0  0  0  0  0  0  0  0  0  0  0
   34.1010   24.5310   26.1750 O   0  0  0  0  0  0  0  0  0  0  0  0
  2  1  1  0
  3  2  1  0
  4  2  1  0
  5  4  2  0
  7  4  1  0
  6  5  1  0
  9  6  2  0
  8  7  2  0
  9  8  1  0
 10  9  1  0
 11 10  1  0
 12 11  1  0
 13 11  1  0
 14 13  2  0
 15 13  1  0
 16 15  1  0
 17 16  1  0
 25 16  1  0
 18 17  1  0
 19 18  1  0
 21 18  1  0
 20 19  1  0
 22 21  1  0
 23 21  1  0
 24 23  1  0
 25 23  1  0
 26 25  1  0
A    1
C14
A    2
C13
A    3
C15
A    4
C10
A    5
C9
A    6
C8
A    7
C11
A    8
C12
A    9
C7
A   10
C6
A   11
C4
A   12
C5
A   13
C2
A   14
O3
A   15
N1
A   16
C1'
A   17
O5'
A   18
C5'
A   19
C6'
A   20
O6'
A   21
C4'
A   22
O4'
A   23
C3'
A   24
O3'
A   25
C2'
A   26
O2'
M  END
>  <Id>  (161) 
4MI3_26R_A_901

>  <ChainId>  (161) 
A

>  <AsymId>  (161) 
B

>  <SeqNum>  (161) 
901

>  <Name>  (161) 
N-{(2R)-2-methyl-3-[4-(propan-2-yl)phenyl]propanoyl}-beta-D-glucopyranosylamine

>  <SystematicName>  (161) 
(2R)-N-[(2R,3R,4S,5S,6R)-6-(hydroxymethyl)-3,4,5-tris(oxidanyl)oxan-2-yl]-2-methyl-3-(4-propan-2-ylphenyl)propanamide

>  <Synonyms>  (161) 


>  <Type>  (161) 
SACCHARIDE

>  <Formula>  (161) 
C19 H29 N O6

>  <ObservedFormula>  (161) 
C19 N O6

>  <MolecularWeight>  (161) 
367.437

>  <ModifiedDate>  (161) 
2014-07-18

>  <Parent>  (161) 


>  <OneLetterCode>  (161) 


>  <SubcomponentList>  (161) 


>  <AmbiguousFlag>  (161) 
N

>  <InsertionCode>  (161) 


>  <InstanceId>  (161) 
4MI3_26R_A_901

>  <ChemCompId>  (161) 
26R

>  <PdbId>  (161) 
4MI3

>  <ResidueNumber>  (161) 
901

>  <InChI>  (161) 
InChI=1S/C19H29NO6/c1-10(2)13-6-4-12(5-7-13)8-11(3)18(25)20-19-17(24)16(23)15(22)14(9-21)26-19/h4-7,10-11,14-17,19,21-24H,8-9H2,1-3H3,(H,20,25)/t11-,14-,15-,16+,17-,19-/m1/s1

>  <InChIKey>  (161) 
HJOFLVJJICDECE-YMZRVSMESA-N

>  <SMILES>  (161) 
C[C@H](Cc1ccc(cc1)C(C)C)C(=O)N[C@H]2[C@@H]([C@H]([C@@H]([C@H](O2)CO)O)O)O

>  <MissingHeavyAtoms>  (161) 
0

>  <Model>  (161) 
1

>  <AltIds>  (161) 


>  <pKI>  (161) 
4.12

>  <ChemblID>  (161) 
-

>  <standardized_canonical_smiles>  (161) 
CC(C)c1ccc(C[C@@H](C)C(=O)N[C@@H]2O[C@H](CO)[C@@H](O)[C@H](O)[C@H]2O)cc1

$$$$
