2YDO_ADN_A_400
     RDKit          3D

 19 21  0  0  0  0  0  0  0  0999 V2000
  -29.2330   10.5700  -26.0220 O   0  0  0  0  0  0  0  0  0  0  0  0
  -29.4640   11.8130  -25.3530 C   0  0  0  0  0  0  0  0  0  0  0  0
  -29.7040   11.5740  -23.8670 C   0  0  0  0  0  0  0  0  0  0  0  0
  -30.6650   10.5270  -23.6910 O   0  0  0  0  0  0  0  0  0  0  0  0
  -28.4670   11.1510  -23.0840 C   0  0  0  0  0  0  0  0  0  0  0  0
  -27.7250   12.2450  -22.5260 O   0  0  0  0  0  0  0  0  0  0  0  0
  -29.0500   10.2980  -21.9850 C   0  0  0  0  0  0  0  0  0  0  0  0
  -29.3760   11.1150  -20.8570 O   0  0  0  0  0  0  0  0  0  0  0  0
  -30.3120    9.7000  -22.5840 C   0  0  0  0  0  0  0  0  0  0  0  0
  -30.0220    8.3070  -23.0090 N   0  0  0  0  0  0  0  0  0  0  0  0
  -29.6630    7.8860  -24.2420 C   0  0  0  0  0  0  0  0  0  0  0  0
  -29.4630    6.5420  -24.2560 N   0  0  0  0  0  0  0  0  0  0  0  0
  -29.6840    6.0870  -23.0110 C   0  0  0  0  0  0  0  0  0  0  0  0
  -29.6570    4.7730  -22.3340 C   0  0  0  0  0  0  0  0  0  0  0  0
  -29.3340    3.6420  -23.0080 N   0  0  0  0  0  0  0  0  0  0  0  0
  -29.9680    4.7450  -21.0190 N   0  0  0  0  0  0  0  0  0  0  0  0
  -30.2950    5.8540  -20.3270 C   0  0  0  0  0  0  0  0  0  0  0  0
  -30.3410    7.0790  -20.8840 N   0  0  0  0  0  0  0  0  0  0  0  0
  -30.0530    7.2540  -22.1940 C   0  0  0  0  0  0  0  0  0  0  0  0
  2  1  1  0
  3  2  1  0
  4  3  1  0
  5  3  1  0
  9  4  1  0
  6  5  1  0
  7  5  1  0
  8  7  1  0
  9  7  1  0
 10  9  1  0
 11 10  1  0
 19 10  1  0
 12 11  2  0
 13 12  1  0
 14 13  1  0
 19 13  2  0
 15 14  1  0
 16 14  2  0
 17 16  1  0
 18 17  2  0
 19 18  1  0
A    1
O5'
A    2
C5'
A    3
C4'
A    4
O4'
A    5
C3'
A    6
O3'
A    7
C2'
A    8
O2'
A    9
C1'
A   10
N9
A   11
C8
A   12
N7
A   13
C5
A   14
C6
A   15
N6
A   16
N1
A   17
C2
A   18
N3
A   19
C4
M  END
>  <Id>  (1) 
2YDO_ADN_A_400

>  <ChainId>  (1) 
A

>  <AsymId>  (1) 
B

>  <SeqNum>  (1) 
400

>  <Name>  (1) 
ADENOSINE

>  <SystematicName>  (1) 
(2R,3R,4S,5R)-2-(6-aminopurin-9-yl)-5-(hydroxymethyl)oxolane-3,4-diol

>  <Synonyms>  (1) 


>  <Type>  (1) 
NON-POLYMER

>  <Formula>  (1) 
C10 H13 N5 O4

>  <ObservedFormula>  (1) 
C10 N5 O4

>  <MolecularWeight>  (1) 
267.241

>  <ModifiedDate>  (1) 
2011-06-04

>  <Parent>  (1) 


>  <OneLetterCode>  (1) 


>  <SubcomponentList>  (1) 


>  <AmbiguousFlag>  (1) 
N

>  <InsertionCode>  (1) 


>  <InstanceId>  (1) 
2YDO_ADN_A_400

>  <ChemCompId>  (1) 
ADN

>  <PdbId>  (1) 
2YDO

>  <ResidueNumber>  (1) 
400

>  <InChI>  (1) 
InChI=1S/C10H13N5O4/c11-8-5-9(13-2-12-8)15(3-14-5)10-7(18)6(17)4(1-16)19-10/h2-4,6-7,10,16-18H,1H2,(H2,11,12,13)/t4-,6-,7-,10-/m1/s1

>  <InChIKey>  (1) 
OIRDTQYFTABQOQ-KQYNXXCUSA-N

>  <SMILES>  (1) 
c1nc(c2c(n1)n(cn2)[C@H]3[C@@H]([C@@H]([C@H](O3)CO)O)O)N

>  <MissingHeavyAtoms>  (1) 
0

>  <Model>  (1) 
1

>  <AltIds>  (1) 


>  <pKI>  (1) 
7.7

>  <ChemblID>  (1) 
CHEMBL477

>  <standardized_canonical_smiles>  (1) 
Nc1ncnc2c1ncn2[C@@H]1O[C@H](CO)[C@@H](O)[C@H]1O

$$$$
4UHR_NGI_A_1320
     RDKit          3D

 36 39  0  0  0  0  0  0  0  0999 V2000
  -15.4140   11.6990  -33.5320 C   0  0  0  0  0  0  0  0  0  0  0  0
  -16.5710   10.1660  -35.0760 N   0  0  0  0  0  0  0  0  0  0  0  0
  -15.8260    8.3380  -36.1800 O   0  0  0  0  0  0  0  0  0  0  0  0
  -15.4310   10.3330  -34.1890 C   0  0  0  0  0  0  0  0  0  0  0  0
  -17.6730    7.8700  -39.6080 N   0  0  0  0  0  0  0  0  0  0  0  0
  -18.1490    9.3740  -37.7960 O   0  0  0  0  0  0  0  0  0  0  0  0
  -16.7260    9.1130  -35.8830 C   0  0  0  0  0  0  0  0  0  0  0  0
  -15.6980    7.3840  -40.4530 N   0  0  0  0  0  0  0  0  0  0  0  0
  -20.6300    7.4440  -37.5640 O   0  0  0  0  0  0  0  0  0  0  0  0
  -18.1050    8.9210  -36.4370 C   0  0  0  0  0  0  0  0  0  0  0  0
  -15.3530    6.0210  -43.1140 N   0  0  0  0  0  0  0  0  0  0  0  0
  -19.3240    7.1060  -35.3380 O   0  0  0  0  0  0  0  0  0  0  0  0
  -18.7120    8.3790  -38.6650 C   0  0  0  0  0  0  0  0  0  0  0  0
  -17.6930    6.0250  -43.2340 N   0  0  0  0  0  0  0  0  0  0  0  0
  -20.2010    2.3080  -53.5060 O   0  0  0  0  0  0  0  0  0  0  0  0
  -19.2250    7.2610  -37.7680 C   0  0  0  0  0  0  0  0  0  0  0  0
  -20.0400    6.0170  -43.3890 N   0  0  0  0  0  0  0  0  0  0  0  0
  -21.9300    2.7790  -52.2330 O   0  0  0  0  0  0  0  0  0  0  0  0
  -18.4940    7.4490  -36.4550 C   0  0  0  0  0  0  0  0  0  0  0  0
  -19.0000    6.9480  -41.4990 N   0  0  0  0  0  0  0  0  0  0  0  0
  -16.3480    7.9340  -39.4040 C   0  0  0  0  0  0  0  0  0  0  0  0
  -16.6330    6.9630  -41.3290 C   0  0  0  0  0  0  0  0  0  0  0  0
  -16.5560    6.3300  -42.5690 C   0  0  0  0  0  0  0  0  0  0  0  0
  -18.9080    6.3300  -42.7090 C   0  0  0  0  0  0  0  0  0  0  0  0
  -20.0270    5.7920  -44.8260 C   0  0  0  0  0  0  0  0  0  0  0  0
  -20.3730    4.3380  -45.2080 C   0  0  0  0  0  0  0  0  0  0  0  0
  -19.9810    4.0130  -46.6400 C   0  0  0  0  0  0  0  0  0  0  0  0
  -19.1060    4.8360  -47.3730 C   0  0  0  0  0  0  0  0  0  0  0  0
  -18.7660    4.5060  -48.6880 C   0  0  0  0  0  0  0  0  0  0  0  0
  -19.3020    3.3500  -49.2840 C   0  0  0  0  0  0  0  0  0  0  0  0
  -18.9440    2.9730  -50.7090 C   0  0  0  0  0  0  0  0  0  0  0  0
  -19.7410    3.8050  -51.7120 C   0  0  0  0  0  0  0  0  0  0  0  0
  -20.6410    2.9140  -52.5400 C   0  0  0  0  0  0  0  0  0  0  0  0
  -20.1710    2.5300  -48.5530 C   0  0  0  0  0  0  0  0  0  0  0  0
  -20.5110    2.8600  -47.2390 C   0  0  0  0  0  0  0  0  0  0  0  0
  -17.8800    7.2740  -40.7950 C   0  0  0  0  0  0  0  0  0  0  0  0
  4  1  1  0
  4  2  1  0
  7  2  1  0
  7  3  2  0
 13  5  1  0
 21  5  1  0
 36  5  1  0
 10  6  1  0
 13  6  1  0
 10  7  1  0
 21  8  2  0
 22  8  1  0
 16  9  1  0
 19 10  1  0
 23 11  1  0
 19 12  1  0
 16 13  1  0
 23 14  1  0
 24 14  2  0
 33 15  1  0
 19 16  1  0
 24 17  1  0
 25 17  1  0
 33 18  2  0
 24 20  1  0
 36 20  2  0
 23 22  2  0
 36 22  1  0
 26 25  1  0
 27 26  1  0
 28 27  2  0
 35 27  1  0
 29 28  1  0
 30 29  2  0
 31 30  1  0
 34 30  1  0
 32 31  1  0
 33 32  1  0
 35 34  2  0
A    1
C1
A    2
N1
A    3
O1
A    4
C2
A    5
N2
A    6
O2
A    7
C3
A    8
N3
A    9
O3
A   10
C4
A   11
N4
A   12
O4
A   13
C5
A   14
N5
A   15
O5
A   16
C6
A   17
N6
A   18
O6
A   19
C7
A   20
N7
A   21
C8
A   22
C9
A   23
C10
A   24
C11
A   25
C12
A   26
C13
A   27
C14
A   28
C15
A   29
C16
A   30
C17
A   31
C18
A   32
C19
A   33
C20
A   34
C21
A   35
C22
A   36
C23
M  END
>  <Id>  (2) 
4UHR_NGI_A_1320

>  <ChainId>  (2) 
A

>  <AsymId>  (2) 
B

>  <SeqNum>  (2) 
1320

>  <Name>  (2) 
2-[P-(2-CARBOXYETHYL)PHENYLETHYL-AMINO]-5'-N-ETHYLCARBOXAMIDO ADENOSINE

>  <SystematicName>  (2) 
3-[4-[2-[[6-azanyl-9-[(2R,3R,4S,5S)-5-(ethylcarbamoyl)-3,4-bis(oxidanyl)oxolan-2-yl]purin-2-yl]amino]ethyl]phenyl]propanoic acid

>  <Synonyms>  (2) 


>  <Type>  (2) 
NON-POLYMER

>  <Formula>  (2) 
C23 H29 N7 O6

>  <ObservedFormula>  (2) 
C23 N7 O6

>  <MolecularWeight>  (2) 
499.52

>  <ModifiedDate>  (2) 
2015-04-03

>  <Parent>  (2) 


>  <OneLetterCode>  (2) 


>  <SubcomponentList>  (2) 


>  <AmbiguousFlag>  (2) 
N

>  <InsertionCode>  (2) 


>  <InstanceId>  (2) 
4UHR_NGI_A_1320

>  <ChemCompId>  (2) 
NGI

>  <PdbId>  (2) 
4UHR

>  <ResidueNumber>  (2) 
1320

>  <InChI>  (2) 
InChI=1S/C23H29N7O6/c1-2-25-21(35)18-16(33)17(34)22(36-18)30-11-27-15-19(24)28-23(29-20(15)30)26-10-9-13-5-3-12(4-6-13)7-8-14(31)32/h3-6,11,16-18,22,33-34H,2,7-10H2,1H3,(H,25,35)(H,31,32)(H3,24,26,28,29)/t16-,17+,18-,22+/m0/s1

>  <InChIKey>  (2) 
PAOANWZGLPPROA-RQXXJAGISA-N

>  <SMILES>  (2) 
CCNC(=O)[C@@H]1[C@H]([C@H]([C@@H](O1)n2cnc3c2nc(nc3N)NCCc4ccc(cc4)CCC(=O)O)O)O

>  <MissingHeavyAtoms>  (2) 
0

>  <Model>  (2) 
1

>  <AltIds>  (2) 


>  <pKI>  (2) 
7.29

>  <ChemblID>  (2) 
CHEMBL1204225

>  <standardized_canonical_smiles>  (2) 
CCNC(=O)[C@H]1OC(n2cnc3c(N)nc(NCCc4ccc(CCC(=O)O)cc4)nc32)[C@H](O)[C@@H]1O

$$$$
4UG2_NGI_B_1307
     RDKit          3D

 36 39  0  0  0  0  0  0  0  0999 V2000
   19.9660  -37.2940   33.0410 C   0  0  0  0  0  0  0  0  0  0  0  0
   20.2910  -39.6560   33.7030 N   0  0  0  0  0  0  0  0  0  0  0  0
   19.0640  -40.8520   35.1570 O   0  0  0  0  0  0  0  0  0  0  0  0
   19.3210  -38.5990   33.4690 C   0  0  0  0  0  0  0  0  0  0  0  0
   20.7810  -42.8410   37.9160 N   0  0  0  0  0  0  0  0  0  0  0  0
   21.7330  -41.2820   36.3680 O   0  0  0  0  0  0  0  0  0  0  0  0
   20.1380  -40.6040   34.6280 C   0  0  0  0  0  0  0  0  0  0  0  0
   18.7840  -42.7400   38.8550 N   0  0  0  0  0  0  0  0  0  0  0  0
   23.2300  -43.9150   35.4490 O   0  0  0  0  0  0  0  0  0  0  0  0
   21.3900  -41.3710   34.9750 C   0  0  0  0  0  0  0  0  0  0  0  0
   18.0480  -44.2940   41.3040 N   0  0  0  0  0  0  0  0  0  0  0  0
   21.7150  -43.1640   33.3840 O   0  0  0  0  0  0  0  0  0  0  0  0
   21.8980  -42.5750   36.9640 C   0  0  0  0  0  0  0  0  0  0  0  0
   20.2400  -45.1280   41.2260 N   0  0  0  0  0  0  0  0  0  0  0  0
   17.6760  -52.5190   48.3870 O   0  0  0  0  0  0  0  0  0  0  0  0
   21.8870  -43.5690   35.8110 C   0  0  0  0  0  0  0  0  0  0  0  0
   22.4320  -45.9830   41.1700 N   0  0  0  0  0  0  0  0  0  0  0  0
   17.6890  -50.5690   49.3970 O   0  0  0  0  0  0  0  0  0  0  0  0
   21.1910  -42.8410   34.6750 C   0  0  0  0  0  0  0  0  0  0  0  0
   21.7400  -44.4560   39.5330 N   0  0  0  0  0  0  0  0  0  0  0  0
   19.5570  -42.2880   37.8460 C   0  0  0  0  0  0  0  0  0  0  0  0
   19.5330  -43.5910   39.5750 C   0  0  0  0  0  0  0  0  0  0  0  0
   19.2650  -44.3440   40.7120 C   0  0  0  0  0  0  0  0  0  0  0  0
   21.4670  -45.1880   40.6470 C   0  0  0  0  0  0  0  0  0  0  0  0
   22.2820  -46.6410   42.4570 C   0  0  0  0  0  0  0  0  0  0  0  0
   21.5810  -47.9960   42.3720 C   0  0  0  0  0  0  0  0  0  0  0  0
   21.0850  -48.4040   43.7460 C   0  0  0  0  0  0  0  0  0  0  0  0
   19.7940  -48.0680   44.1570 C   0  0  0  0  0  0  0  0  0  0  0  0
   19.3430  -48.4440   45.4220 C   0  0  0  0  0  0  0  0  0  0  0  0
   20.1810  -49.1590   46.2800 C   0  0  0  0  0  0  0  0  0  0  0  0
   19.6880  -49.5660   47.6520 C   0  0  0  0  0  0  0  0  0  0  0  0
   19.4240  -51.0700   47.6850 C   0  0  0  0  0  0  0  0  0  0  0  0
   18.2060  -51.4250   48.5160 C   0  0  0  0  0  0  0  0  0  0  0  0
   21.4770  -49.4900   45.8750 C   0  0  0  0  0  0  0  0  0  0  0  0
   21.9260  -49.1150   44.6080 C   0  0  0  0  0  0  0  0  0  0  0  0
   20.7920  -43.6540   38.9830 C   0  0  0  0  0  0  0  0  0  0  0  0
  4  1  1  0
  4  2  1  0
  7  2  1  0
  7  3  2  0
 13  5  1  0
 21  5  1  0
 36  5  1  0
 10  6  1  0
 13  6  1  0
 10  7  1  0
 21  8  2  0
 22  8  1  0
 16  9  1  0
 19 10  1  0
 23 11  1  0
 19 12  1  0
 16 13  1  0
 23 14  1  0
 24 14  2  0
 33 15  1  0
 19 16  1  0
 24 17  1  0
 25 17  1  0
 33 18  2  0
 24 20  1  0
 36 20  2  0
 23 22  2  0
 36 22  1  0
 26 25  1  0
 27 26  1  0
 28 27  2  0
 35 27  1  0
 29 28  1  0
 30 29  2  0
 31 30  1  0
 34 30  1  0
 32 31  1  0
 33 32  1  0
 35 34  2  0
A    1
C1
A    2
N1
A    3
O1
A    4
C2
A    5
N2
A    6
O2
A    7
C3
A    8
N3
A    9
O3
A   10
C4
A   11
N4
A   12
O4
A   13
C5
A   14
N5
A   15
O5
A   16
C6
A   17
N6
A   18
O6
A   19
C7
A   20
N7
A   21
C8
A   22
C9
A   23
C10
A   24
C11
A   25
C12
A   26
C13
A   27
C14
A   28
C15
A   29
C16
A   30
C17
A   31
C18
A   32
C19
A   33
C20
A   34
C21
A   35
C22
A   36
C23
M  END
>  <Id>  (3) 
4UG2_NGI_B_1307

>  <ChainId>  (3) 
B

>  <AsymId>  (3) 
F

>  <SeqNum>  (3) 
1307

>  <Name>  (3) 
2-[P-(2-CARBOXYETHYL)PHENYLETHYL-AMINO]-5'-N-ETHYLCARBOXAMIDO ADENOSINE

>  <SystematicName>  (3) 
3-[4-[2-[[6-azanyl-9-[(2R,3R,4S,5S)-5-(ethylcarbamoyl)-3,4-bis(oxidanyl)oxolan-2-yl]purin-2-yl]amino]ethyl]phenyl]propanoic acid

>  <Synonyms>  (3) 


>  <Type>  (3) 
NON-POLYMER

>  <Formula>  (3) 
C23 H29 N7 O6

>  <ObservedFormula>  (3) 
C23 N7 O6

>  <MolecularWeight>  (3) 
499.52

>  <ModifiedDate>  (3) 
2015-04-03

>  <Parent>  (3) 


>  <OneLetterCode>  (3) 


>  <SubcomponentList>  (3) 


>  <AmbiguousFlag>  (3) 
N

>  <InsertionCode>  (3) 


>  <InstanceId>  (3) 
4UG2_NGI_B_1307

>  <ChemCompId>  (3) 
NGI

>  <PdbId>  (3) 
4UG2

>  <ResidueNumber>  (3) 
1307

>  <InChI>  (3) 
InChI=1S/C23H29N7O6/c1-2-25-21(35)18-16(33)17(34)22(36-18)30-11-27-15-19(24)28-23(29-20(15)30)26-10-9-13-5-3-12(4-6-13)7-8-14(31)32/h3-6,11,16-18,22,33-34H,2,7-10H2,1H3,(H,25,35)(H,31,32)(H3,24,26,28,29)/t16-,17+,18-,22+/m0/s1

>  <InChIKey>  (3) 
PAOANWZGLPPROA-RQXXJAGISA-N

>  <SMILES>  (3) 
CCNC(=O)[C@@H]1[C@H]([C@H]([C@@H](O1)n2cnc3c2nc(nc3N)NCCc4ccc(cc4)CCC(=O)O)O)O

>  <MissingHeavyAtoms>  (3) 
0

>  <Model>  (3) 
1

>  <AltIds>  (3) 


>  <pKI>  (3) 
7.29

>  <ChemblID>  (3) 
CHEMBL1204225

>  <standardized_canonical_smiles>  (3) 
CCNC(=O)[C@H]1OC(n2cnc3c(N)nc(NCCc4ccc(CCC(=O)O)cc4)nc32)[C@H](O)[C@@H]1O

$$$$
5OLH_9XT_A_1201
     RDKit          3D

 24 27  0  0  0  0  0  0  0  0999 V2000
  -24.3510    8.6280   11.4010 N   0  0  0  0  0  0  0  0  0  0  0  0
  -23.3090    5.9570   17.6080 N   0  0  0  0  0  0  0  0  0  0  0  0
  -23.7670    8.4880   15.5210 C   0  0  0  0  0  0  0  0  0  0  0  0
  -24.8390    7.8240   14.9510 C   0  0  0  0  0  0  0  0  0  0  0  0
  -25.0370    7.8620   13.5850 C   0  0  0  0  0  0  0  0  0  0  0  0
  -24.1600    8.5800   12.7820 C   0  0  0  0  0  0  0  0  0  0  0  0
  -23.5630    8.4410   17.0130 C   0  0  0  0  0  0  0  0  0  0  0  0
  -19.9570    5.5710   18.7490 C   0  0  0  0  0  0  0  0  0  0  0  0
  -19.5890    4.2050   19.1430 C   0  0  0  0  0  0  0  0  0  0  0  0
  -19.6570    2.0440   19.6280 C   0  0  0  0  0  0  0  0  0  0  0  0
  -22.1450   10.0320   12.4800 C   0  0  0  0  0  0  0  0  0  0  0  0
  -19.3380    7.7720   18.4820 C   0  0  0  0  0  0  0  0  0  0  0  0
  -21.5110    7.2260   17.9090 C   0  0  0  0  0  0  0  0  0  0  0  0
  -20.4340    3.1380   19.2210 C   0  0  0  0  0  0  0  0  0  0  0  0
  -18.3870    2.4880   19.7800 C   0  0  0  0  0  0  0  0  0  0  0  0
  -23.0900    9.2530   13.3550 C   0  0  0  0  0  0  0  0  0  0  0  0
  -22.8970    9.2100   14.7230 C   0  0  0  0  0  0  0  0  0  0  0  0
  -21.2540    5.8900   18.2700 C   0  0  0  0  0  0  0  0  0  0  0  0
  -22.8170    7.2640   17.4790 N   0  0  0  0  0  0  0  0  0  0  0  0
  -22.3810    5.1870   18.0640 N   0  0  0  0  0  0  0  0  0  0  0  0
  -19.0490    6.5340   18.8330 N   0  0  0  0  0  0  0  0  0  0  0  0
  -20.5320    8.1200   18.0350 N   0  0  0  0  0  0  0  0  0  0  0  0
  -18.3400    8.7260   18.5930 N   0  0  0  0  0  0  0  0  0  0  0  0
  -18.3470    3.7950   19.4840 O   0  0  0  0  0  0  0  0  0  0  0  0
  6  1  1  0
 19  2  1  0
 20  2  2  0
  4  3  2  0
  7  3  1  0
 17  3  1  0
  5  4  1  0
  6  5  2  0
 16  6  1  0
 19  7  1  0
  9  8  1  0
 18  8  1  0
 21  8  2  0
 14  9  2  0
 24  9  1  0
 14 10  1  0
 15 10  2  0
 16 11  1  0
 21 12  1  0
 22 12  2  0
 23 12  1  0
 18 13  2  0
 19 13  1  0
 22 13  1  0
 24 15  1  0
 17 16  2  0
 20 18  1  0
A    1
N1
A    2
N3
A    3
C4
A    4
C5
A    5
C6
A    6
C7
A    7
C8
A    8
C10
A    9
C13
A   10
C15
A   11
C1
A   12
C11
A   13
C12
A   14
C14
A   15
C16
A   16
C2
A   17
C3
A   18
C9
A   19
N2
A   20
N4
A   21
N5
A   22
N6
A   23
N7
A   24
O1
M  END
>  <Id>  (4) 
5OLH_9XT_A_1201

>  <ChainId>  (4) 
A

>  <AsymId>  (4) 
B

>  <SeqNum>  (4) 
1201

>  <Name>  (4) 
3-[(4-azanyl-3-methyl-phenyl)methyl]-7-(furan-2-yl)-[1,2,3]triazolo[4,5-d]pyrimidin-5-amine

>  <SystematicName>  (4) 
3-[(4-azanyl-3-methyl-phenyl)methyl]-7-(furan-2-yl)-[1,2,3]triazolo[4,5-d]pyrimidin-5-amine

>  <Synonyms>  (4) 


>  <Type>  (4) 
NON-POLYMER

>  <Formula>  (4) 
C16 H15 N7 O

>  <ObservedFormula>  (4) 
C16 N7 O

>  <MolecularWeight>  (4) 
321.337

>  <ModifiedDate>  (4) 
2018-01-12

>  <Parent>  (4) 


>  <OneLetterCode>  (4) 


>  <SubcomponentList>  (4) 


>  <AmbiguousFlag>  (4) 
N

>  <InsertionCode>  (4) 


>  <InstanceId>  (4) 
5OLH_9XT_A_1201

>  <ChemCompId>  (4) 
9XT

>  <PdbId>  (4) 
5OLH

>  <ResidueNumber>  (4) 
1201

>  <InChI>  (4) 
InChI=1S/C16H15N7O/c1-9-7-10(4-5-11(9)17)8-23-15-14(21-22-23)13(19-16(18)20-15)12-3-2-6-24-12/h2-7H,8,17H2,1H3,(H2,18,19,20)

>  <InChIKey>  (4) 
HQSBCDPYXDGTCL-UHFFFAOYSA-N

>  <SMILES>  (4) 
Cc1cc(ccc1N)Cn2c3c(c(nc(n3)N)c4ccco4)nn2

>  <MissingHeavyAtoms>  (4) 
0

>  <Model>  (4) 
1

>  <AltIds>  (4) 


>  <pKI>  (4) 
8.89

>  <ChemblID>  (4) 
CHEMBL447664

>  <standardized_canonical_smiles>  (4) 
Cc1cc(Cn2nnc3c(-c4ccco4)nc(N)nc32)ccc1N

$$$$
5OLV_9Y2_A_1201
     RDKit          3D

 24 25  0  0  0  0  0  0  0  0999 V2000
  -22.1850    8.3600   16.1240 C   0  0  0  0  0  0  0  0  0  0  0  0
  -22.4740    6.2410   17.2090 C   0  0  0  0  0  0  0  0  0  0  0  0
  -24.3360    7.2980   16.1690 C   0  0  0  0  0  0  0  0  0  0  0  0
  -21.8990    5.0410   17.9020 C   0  0  0  0  0  0  0  0  0  0  0  0
  -19.9500    4.0480   18.9280 C   0  0  0  0  0  0  0  0  0  0  0  0
  -18.2350    2.8370   19.7080 C   0  0  0  0  0  0  0  0  0  0  0  0
  -22.9260   11.0470   12.4610 C   0  0  0  0  0  0  0  0  0  0  0  0
  -23.5220   12.1920   13.2660 C   0  0  0  0  0  0  0  0  0  0  0  0
  -22.3770   12.8120   14.0260 C   0  0  0  0  0  0  0  0  0  0  0  0
  -24.0980   13.2130   12.2820 C   0  0  0  0  0  0  0  0  0  0  0  0
  -24.6020   11.7350   14.2610 C   0  0  0  0  0  0  0  0  0  0  0  0
  -24.0420   10.7950   15.3330 C   0  0  0  0  0  0  0  0  0  0  0  0
  -23.5510    8.3680   15.8270 C   0  0  0  0  0  0  0  0  0  0  0  0
  -21.6300    7.2840   16.8230 C   0  0  0  0  0  0  0  0  0  0  0  0
  -23.8130    6.2110   16.8600 C   0  0  0  0  0  0  0  0  0  0  0  0
  -19.2000    1.8620   19.8280 C   0  0  0  0  0  0  0  0  0  0  0  0
  -21.4120    9.4010   15.7550 F   0  0  0  0  0  0  0  0  0  0  0  0
  -25.6170    7.3160   15.8680 F   0  0  0  0  0  0  0  0  0  0  0  0
  -24.0820    9.4280   15.0430 N   0  0  0  0  0  0  0  0  0  0  0  0
  -20.5860    5.1480   18.3660 N   0  0  0  0  0  0  0  0  0  0  0  0
  -18.6570    4.0020   19.2110 N   0  0  0  0  0  0  0  0  0  0  0  0
  -23.6300   11.1470   16.4260 O   0  0  0  0  0  0  0  0  0  0  0  0
  -22.5490    4.0020   17.9190 O   0  0  0  0  0  0  0  0  0  0  0  0
  -20.6880    2.5300   19.2640 S   0  0  0  0  0  0  0  0  0  0  0  0
 13  1  2  0
 14  1  1  0
 17  1  1  0
  4  2  1  0
 14  2  2  0
 15  2  1  0
 13  3  1  0
 15  3  2  0
 18  3  1  0
 20  4  1  0
 23  4  2  0
 20  5  1  0
 21  5  2  0
 24  5  1  0
 16  6  2  0
 21  6  1  0
  8  7  1  0
  9  8  1  0
 10  8  1  0
 11  8  1  0
 12 11  1  0
 19 12  1  0
 22 12  2  0
 19 13  1  0
 24 16  1  0
A    1
C10
A    2
C13
A    3
C15
A    4
C17
A    5
C20
A    6
C22
A    7
C01
A    8
C02
A    9
C03
A   10
C04
A   11
C05
A   12
C06
A   13
C09
A   14
C12
A   15
C14
A   16
C23
A   17
F11
A   18
F16
A   19
N08
A   20
N19
A   21
N21
A   22
O07
A   23
O18
A   24
S24
M  END
>  <Id>  (5) 
5OLV_9Y2_A_1201

>  <ChainId>  (5) 
A

>  <AsymId>  (5) 
B

>  <SeqNum>  (5) 
1201

>  <Name>  (5) 
4-(3,3-dimethylbutanoylamino)-3,5-bis(fluoranyl)-~{N}-(1,3-thiazol-2-yl)benzamide

>  <SystematicName>  (5) 
4-(3,3-dimethylbutanoylamino)-3,5-bis(fluoranyl)-~{N}-(1,3-thiazol-2-yl)benzamide

>  <Synonyms>  (5) 


>  <Type>  (5) 
NON-POLYMER

>  <Formula>  (5) 
C16 H17 F2 N3 O2 S

>  <ObservedFormula>  (5) 
C16 S F2 N3 O2

>  <MolecularWeight>  (5) 
353.387

>  <ModifiedDate>  (5) 
2018-01-12

>  <Parent>  (5) 


>  <OneLetterCode>  (5) 


>  <SubcomponentList>  (5) 


>  <AmbiguousFlag>  (5) 
N

>  <InsertionCode>  (5) 


>  <InstanceId>  (5) 
5OLV_9Y2_A_1201

>  <ChemCompId>  (5) 
9Y2

>  <PdbId>  (5) 
5OLV

>  <ResidueNumber>  (5) 
1201

>  <InChI>  (5) 
InChI=1S/C16H17F2N3O2S/c1-16(2,3)8-12(22)20-13-10(17)6-9(7-11(13)18)14(23)21-15-19-4-5-24-15/h4-7H,8H2,1-3H3,(H,20,22)(H,19,21,23)

>  <InChIKey>  (5) 
KEUJAGGJGBWRFC-UHFFFAOYSA-N

>  <SMILES>  (5) 
CC(C)(C)CC(=O)Nc1c(cc(cc1F)C(=O)Nc2nccs2)F

>  <MissingHeavyAtoms>  (5) 
0

>  <Model>  (5) 
1

>  <AltIds>  (5) 


>  <pKI>  (5) 
8.23

>  <ChemblID>  (5) 
CHEMBL1671936

>  <standardized_canonical_smiles>  (5) 
CC(C)(C)CC(=O)Nc1c(F)cc(C(=O)Nc2nccs2)cc1F

$$$$
3QAK_UKA_A_1200
     RDKit          3D

 57 63  0  0  0  0  0  0  0  0999 V2000
   -5.4030  -11.1280   49.4650 C   0  0  0  0  0  0  0  0  0  0  0  0
   -4.3290   -9.9270   51.3680 N   0  0  0  0  0  0  0  0  0  0  0  0
   -3.1030  -10.7160   49.4040 O   0  0  0  0  0  0  0  0  0  0  0  0
   -5.1080  -10.2300   48.2720 C   0  0  0  0  0  0  0  0  0  0  0  0
   -2.1660   -8.9620   46.6600 N   0  0  0  0  0  0  0  0  0  0  0  0
   -5.7350  -10.6420   47.0650 O   0  0  0  0  0  0  0  0  0  0  0  0
   -3.6080  -10.3080   48.1180 C   0  0  0  0  0  0  0  0  0  0  0  0
   -4.2780   -8.0130   52.4550 N   0  0  0  0  0  0  0  0  0  0  0  0
   -5.5760  -12.5030   49.1070 O   0  0  0  0  0  0  0  0  0  0  0  0
   -4.1610  -11.0010   50.3290 C   0  0  0  0  0  0  0  0  0  0  0  0
   -5.9900  -10.0200   55.0120 N   0  0  0  0  0  0  0  0  0  0  0  0
   -3.4730   -7.9700   48.1990 O   0  0  0  0  0  0  0  0  0  0  0  0
   -3.0710   -8.9830   47.6590 C   0  0  0  0  0  0  0  0  0  0  0  0
   -5.4670  -11.2130   53.0940 N   0  0  0  0  0  0  0  0  0  0  0  0
   -6.5250  -13.4780   54.4540 O   0  0  0  0  0  0  0  0  0  0  0  0
   -1.5900   -7.7190   46.1470 C   0  0  0  0  0  0  0  0  0  0  0  0
   -5.4280   -7.7970   55.3050 N   0  0  0  0  0  0  0  0  0  0  0  0
   -9.8250  -12.7320   59.6040 O   0  0  0  0  0  0  0  0  0  0  0  0
   -1.0650   -7.8060   44.7330 C   0  0  0  0  0  0  0  0  0  0  0  0
   -7.4820  -12.0490   55.9490 N   0  0  0  0  0  0  0  0  0  0  0  0
   -3.9440   -8.6430   51.3090 C   0  0  0  0  0  0  0  0  0  0  0  0
   -7.7270  -12.5110   58.9730 N   0  0  0  0  0  0  0  0  0  0  0  0
   -4.8820   -8.9260   53.2460 C   0  0  0  0  0  0  0  0  0  0  0  0
   -8.5550  -11.3370   60.7430 N   0  0  0  0  0  0  0  0  0  0  0  0
   -4.9080  -10.1160   52.5480 C   0  0  0  0  0  0  0  0  0  0  0  0
  -10.5180   -8.7490   63.2270 N   0  0  0  0  0  0  0  0  0  0  0  0
   -5.4550   -8.8940   54.5190 C   0  0  0  0  0  0  0  0  0  0  0  0
   -9.2950   -7.0630   64.4370 N   0  0  0  0  0  0  0  0  0  0  0  0
   -5.9960  -11.1700   54.3160 C   0  0  0  0  0  0  0  0  0  0  0  0
   -5.6890   -7.9240   56.7310 C   0  0  0  0  0  0  0  0  0  0  0  0
   -6.9630   -7.1980   57.1430 C   0  0  0  0  0  0  0  0  0  0  0  0
   -6.9990   -6.9300   58.6010 C   0  0  0  0  0  0  0  0  0  0  0  0
   -8.1310   -7.9590   56.6810 C   0  0  0  0  0  0  0  0  0  0  0  0
   -7.6760   -5.8060   59.0290 C   0  0  0  0  0  0  0  0  0  0  0  0
   -7.7260   -5.4920   60.3700 C   0  0  0  0  0  0  0  0  0  0  0  0
   -7.0920   -6.2890   61.3100 C   0  0  0  0  0  0  0  0  0  0  0  0
   -6.4090   -7.4170   60.9010 C   0  0  0  0  0  0  0  0  0  0  0  0
   -6.3630   -7.7380   59.5410 C   0  0  0  0  0  0  0  0  0  0  0  0
   -8.6730   -8.9830   57.4360 C   0  0  0  0  0  0  0  0  0  0  0  0
   -9.7680   -9.6850   56.9470 C   0  0  0  0  0  0  0  0  0  0  0  0
  -10.3180   -9.3560   55.7170 C   0  0  0  0  0  0  0  0  0  0  0  0
   -9.7680   -8.3180   54.9580 C   0  0  0  0  0  0  0  0  0  0  0  0
   -8.6710   -7.6240   55.4440 C   0  0  0  0  0  0  0  0  0  0  0  0
   -6.6650  -12.3610   54.9290 C   0  0  0  0  0  0  0  0  0  0  0  0
   -8.3970  -12.9590   56.6040 C   0  0  0  0  0  0  0  0  0  0  0  0
   -7.8020  -13.4780   57.8910 C   0  0  0  0  0  0  0  0  0  0  0  0
   -8.7470  -12.2190   59.7700 C   0  0  0  0  0  0  0  0  0  0  0  0
   -9.5870  -10.9340   61.6990 C   0  0  0  0  0  0  0  0  0  0  0  0
  -10.5270   -9.8930   61.0950 C   0  0  0  0  0  0  0  0  0  0  0  0
  -11.3960   -9.1910   62.1350 C   0  0  0  0  0  0  0  0  0  0  0  0
   -9.8660   -9.8300   63.9600 C   0  0  0  0  0  0  0  0  0  0  0  0
   -8.8830  -10.4010   62.9530 C   0  0  0  0  0  0  0  0  0  0  0  0
  -10.9900   -6.3310   62.9490 C   0  0  0  0  0  0  0  0  0  0  0  0
  -10.6930   -5.0030   63.2750 C   0  0  0  0  0  0  0  0  0  0  0  0
   -9.6810   -4.7340   64.1940 C   0  0  0  0  0  0  0  0  0  0  0  0
   -8.9880   -5.8010   64.7720 C   0  0  0  0  0  0  0  0  0  0  0  0
  -10.2740   -7.3810   63.5420 C   0  0  0  0  0  0  0  0  0  0  0  0
  4  1  1  0
  9  1  1  0
 10  1  1  0
 10  2  1  0
 21  2  1  0
 25  2  1  0
  7  3  1  0
 10  3  1  0
  6  4  1  0
  7  4  1  0
 13  5  1  0
 16  5  1  0
 13  7  1  0
 21  8  2  0
 23  8  1  0
 27 11  2  0
 29 11  1  0
 13 12  2  0
 25 14  1  0
 29 14  2  0
 44 15  2  0
 19 16  1  0
 27 17  1  0
 30 17  1  0
 47 18  2  0
 44 20  1  0
 45 20  1  0
 46 22  1  0
 47 22  1  0
 25 23  2  0
 27 23  1  0
 47 24  1  0
 48 24  1  0
 50 26  1  0
 51 26  1  0
 57 26  1  0
 56 28  2  0
 57 28  1  0
 44 29  1  0
 31 30  1  0
 32 31  1  0
 33 31  1  0
 34 32  2  0
 38 32  1  0
 39 33  2  0
 43 33  1  0
 35 34  1  0
 36 35  2  0
 37 36  1  0
 38 37  2  0
 40 39  1  0
 41 40  2  0
 42 41  1  0
 43 42  2  0
 46 45  1  0
 49 48  1  0
 52 48  1  0
 50 49  1  0
 52 51  1  0
 54 53  1  0
 57 53  2  0
 55 54  2  0
 56 55  1  0
A    1
C1
A    2
N1
A    3
O1
A    4
C2
A    5
N2
A    6
O2
A    7
C3
A    8
N3
A    9
O3
A   10
C4
A   11
N4
A   12
O4
A   13
C5
A   14
N5
A   15
O5
A   16
C6
A   17
N6
A   18
O6
A   19
C7
A   20
N7
A   21
C8
A   22
N8
A   23
C9
A   24
N9
A   25
C10
A   26
N10
A   27
C11
A   28
N11
A   29
C12
A   30
C13
A   31
C14
A   32
C15
A   33
C16
A   34
C17
A   35
C18
A   36
C19
A   37
C20
A   38
C21
A   39
C22
A   40
C23
A   41
C24
A   42
C25
A   43
C26
A   44
C27
A   45
C28
A   46
C29
A   47
C30
A   48
C31
A   49
C32
A   50
C33
A   51
C34
A   52
C35
A   53
C36
A   54
C37
A   55
C38
A   56
C39
A   57
C40
M  END
>  <Id>  (6) 
3QAK_UKA_A_1200

>  <ChainId>  (6) 
A

>  <AsymId>  (6) 
B

>  <SeqNum>  (6) 
1200

>  <Name>  (6) 
6-(2,2-diphenylethylamino)-9-[(2R,3R,4S,5S)-5-(ethylcarbamoyl)-3,4-dihydroxy-oxolan-2-yl]-N-[2-[(1-pyridin-2-ylpiperidin-4-yl)carbamoylamino]ethyl]purine-2-carboxamide

>  <SystematicName>  (6) 
6-(2,2-diphenylethylamino)-9-[(2R,3R,4S,5S)-5-(ethylcarbamoyl)-3,4-dihydroxy-oxolan-2-yl]-N-[2-[(1-pyridin-2-ylpiperidin-4-yl)carbamoylamino]ethyl]purine-2-carboxamide

>  <Synonyms>  (6) 


>  <Type>  (6) 
NON-POLYMER

>  <Formula>  (6) 
C40 H47 N11 O6

>  <ObservedFormula>  (6) 
C40 N11 O6

>  <MolecularWeight>  (6) 
777.871

>  <ModifiedDate>  (6) 
2011-06-04

>  <Parent>  (6) 


>  <OneLetterCode>  (6) 


>  <SubcomponentList>  (6) 


>  <AmbiguousFlag>  (6) 
N

>  <InsertionCode>  (6) 


>  <InstanceId>  (6) 
3QAK_UKA_A_1200

>  <ChemCompId>  (6) 
UKA

>  <PdbId>  (6) 
3QAK

>  <ResidueNumber>  (6) 
1200

>  <InChI>  (6) 
InChI=1S/C40H47N11O6/c1-2-41-37(54)33-31(52)32(53)39(57-33)51-24-46-30-34(45-23-28(25-11-5-3-6-12-25)26-13-7-4-8-14-26)48-35(49-36(30)51)38(55)43-19-20-44-40(56)47-27-16-21-50(22-17-27)29-15-9-10-18-42-29/h3-15,18,24,27-28,31-33,39,52-53H,2,16-17,19-23H2,1H3,(H,41,54)(H,43,55)(H2,44,47,56)(H,45,48,49)/t31-,32+,33-,39+/m0/s1

>  <InChIKey>  (6) 
ZOTHAEBAWXWVID-HXEFRTELSA-N

>  <SMILES>  (6) 
CCNC(=O)[C@@H]1[C@H]([C@H]([C@@H](O1)n2cnc3c2nc(nc3NCC(c4ccccc4)c5ccccc5)C(=O)NCCNC(=O)NC6CCN(CC6)c7ccccn7)O)O

>  <MissingHeavyAtoms>  (6) 
0

>  <Model>  (6) 
1

>  <AltIds>  (6) 


>  <pKI>  (6) 
8.4

>  <ChemblID>  (6) 
CHEMBL1096896

>  <standardized_canonical_smiles>  (6) 
CCNC(=O)[C@H]1O[C@@H](n2cnc3c(NCC(c4ccccc4)c4ccccc4)nc(C(=O)NCCNC(=O)NC4CCN(c5ccccn5)CC4)nc32)[C@H](O)[C@@H]1O

$$$$
5WF6_UKA_A_1201
     RDKit          3D

 57 63  0  0  0  0  0  0  0  0999 V2000
   -6.1840  -11.5920   49.2670 C   0  0  0  0  0  0  0  0  0  0  0  0
   -5.1860  -10.3530   51.2050 N   0  0  0  0  0  0  0  0  0  0  0  0
   -3.8770  -11.1450   49.4450 O   0  0  0  0  0  0  0  0  0  0  0  0
   -5.8090  -10.5770   48.1870 C   0  0  0  0  0  0  0  0  0  0  0  0
   -2.5960   -9.4340   46.9890 N   0  0  0  0  0  0  0  0  0  0  0  0
   -6.3980  -10.8930   46.9300 O   0  0  0  0  0  0  0  0  0  0  0  0
   -4.2840  -10.7350   48.1300 C   0  0  0  0  0  0  0  0  0  0  0  0
   -5.0970   -8.2870   52.0860 N   0  0  0  0  0  0  0  0  0  0  0  0
   -6.2320  -12.9230   48.7640 O   0  0  0  0  0  0  0  0  0  0  0  0
   -5.0150  -11.4320   50.2360 C   0  0  0  0  0  0  0  0  0  0  0  0
   -6.5840  -10.1220   54.9490 N   0  0  0  0  0  0  0  0  0  0  0  0
   -4.1600   -8.3400   48.1910 O   0  0  0  0  0  0  0  0  0  0  0  0
   -3.6760   -9.3870   47.7680 C   0  0  0  0  0  0  0  0  0  0  0  0
   -6.1830  -11.5360   53.0770 N   0  0  0  0  0  0  0  0  0  0  0  0
   -7.2750  -13.6000   54.4150 O   0  0  0  0  0  0  0  0  0  0  0  0
   -1.8280   -8.2620   46.5820 C   0  0  0  0  0  0  0  0  0  0  0  0
   -6.0940   -7.8470   54.9660 N   0  0  0  0  0  0  0  0  0  0  0  0
  -10.2700  -12.6630   59.5090 O   0  0  0  0  0  0  0  0  0  0  0  0
   -2.6450   -7.3130   45.7770 C   0  0  0  0  0  0  0  0  0  0  0  0
   -7.7740  -12.3170   56.1970 N   0  0  0  0  0  0  0  0  0  0  0  0
   -4.8390   -9.0370   51.0430 C   0  0  0  0  0  0  0  0  0  0  0  0
   -8.0450  -12.6120   59.1290 N   0  0  0  0  0  0  0  0  0  0  0  0
   -5.6540   -9.1710   52.9990 C   0  0  0  0  0  0  0  0  0  0  0  0
   -8.9530  -11.2800   60.7280 N   0  0  0  0  0  0  0  0  0  0  0  0
   -5.7150  -10.4450   52.4670 C   0  0  0  0  0  0  0  0  0  0  0  0
  -11.3980   -8.5520   62.8510 N   0  0  0  0  0  0  0  0  0  0  0  0
   -6.1180   -9.0240   54.3220 C   0  0  0  0  0  0  0  0  0  0  0  0
  -10.5570   -6.7790   64.0670 N   0  0  0  0  0  0  0  0  0  0  0  0
   -6.6150  -11.3070   54.3210 C   0  0  0  0  0  0  0  0  0  0  0  0
   -6.0830   -7.7110   56.4150 C   0  0  0  0  0  0  0  0  0  0  0  0
   -7.1980   -8.3310   57.2600 C   0  0  0  0  0  0  0  0  0  0  0  0
   -8.5190   -8.5690   56.5410 C   0  0  0  0  0  0  0  0  0  0  0  0
   -7.4230   -7.5390   58.5420 C   0  0  0  0  0  0  0  0  0  0  0  0
   -9.3020   -9.6640   56.8780 C   0  0  0  0  0  0  0  0  0  0  0  0
  -10.4980   -9.9030   56.2270 C   0  0  0  0  0  0  0  0  0  0  0  0
  -10.9300   -9.0520   55.2350 C   0  0  0  0  0  0  0  0  0  0  0  0
  -10.1670   -7.9550   54.8980 C   0  0  0  0  0  0  0  0  0  0  0  0
   -8.9700   -7.7130   55.5470 C   0  0  0  0  0  0  0  0  0  0  0  0
   -7.3850   -8.1670   59.7790 C   0  0  0  0  0  0  0  0  0  0  0  0
   -7.6380   -7.4550   60.9380 C   0  0  0  0  0  0  0  0  0  0  0  0
   -7.9290   -6.1110   60.8780 C   0  0  0  0  0  0  0  0  0  0  0  0
   -7.9640   -5.4750   59.6580 C   0  0  0  0  0  0  0  0  0  0  0  0
   -7.7110   -6.1820   58.4960 C   0  0  0  0  0  0  0  0  0  0  0  0
   -7.2460  -12.5140   54.9870 C   0  0  0  0  0  0  0  0  0  0  0  0
   -8.6240  -13.3060   56.8440 C   0  0  0  0  0  0  0  0  0  0  0  0
   -8.0630  -13.7210   58.1870 C   0  0  0  0  0  0  0  0  0  0  0  0
   -9.1590  -12.2130   59.7720 C   0  0  0  0  0  0  0  0  0  0  0  0
  -10.0350  -10.7410   61.5450 C   0  0  0  0  0  0  0  0  0  0  0  0
  -10.8610   -9.7400   60.7620 C   0  0  0  0  0  0  0  0  0  0  0  0
  -11.9600   -9.1640   61.6430 C   0  0  0  0  0  0  0  0  0  0  0  0
  -10.6210   -9.5180   63.6360 C   0  0  0  0  0  0  0  0  0  0  0  0
   -9.4870  -10.1080   62.8090 C   0  0  0  0  0  0  0  0  0  0  0  0
  -11.7710   -6.3050   62.0510 C   0  0  0  0  0  0  0  0  0  0  0  0
  -11.5910   -4.9510   62.2650 C   0  0  0  0  0  0  0  0  0  0  0  0
  -10.9020   -4.5140   63.3700 C   0  0  0  0  0  0  0  0  0  0  0  0
  -10.4060   -5.4590   64.2380 C   0  0  0  0  0  0  0  0  0  0  0  0
  -11.2350   -7.1910   62.9870 C   0  0  0  0  0  0  0  0  0  0  0  0
  4  1  1  0
  9  1  1  0
 10  1  1  0
 10  2  1  0
 21  2  1  0
 25  2  1  0
  7  3  1  0
 10  3  1  0
  6  4  1  0
  7  4  1  0
 13  5  1  0
 16  5  1  0
 13  7  1  0
 21  8  2  0
 23  8  1  0
 27 11  2  0
 29 11  1  0
 13 12  2  0
 25 14  1  0
 29 14  2  0
 44 15  2  0
 19 16  1  0
 27 17  1  0
 30 17  1  0
 47 18  2  0
 44 20  1  0
 45 20  1  0
 46 22  1  0
 47 22  1  0
 25 23  2  0
 27 23  1  0
 47 24  1  0
 48 24  1  0
 50 26  1  0
 51 26  1  0
 57 26  1  0
 56 28  2  0
 57 28  1  0
 44 29  1  0
 31 30  1  0
 32 31  1  0
 33 31  1  0
 34 32  2  0
 38 32  1  0
 39 33  2  0
 43 33  1  0
 35 34  1  0
 36 35  2  0
 37 36  1  0
 38 37  2  0
 40 39  1  0
 41 40  2  0
 42 41  1  0
 43 42  2  0
 46 45  1  0
 49 48  1  0
 52 48  1  0
 50 49  1  0
 52 51  1  0
 54 53  1  0
 57 53  2  0
 55 54  2  0
 56 55  1  0
A    1
C1
A    2
N1
A    3
O1
A    4
C2
A    5
N2
A    6
O2
A    7
C3
A    8
N3
A    9
O3
A   10
C4
A   11
N4
A   12
O4
A   13
C5
A   14
N5
A   15
O5
A   16
C6
A   17
N6
A   18
O6
A   19
C7
A   20
N7
A   21
C8
A   22
N8
A   23
C9
A   24
N9
A   25
C10
A   26
N10
A   27
C11
A   28
N11
A   29
C12
A   30
C13
A   31
C14
A   32
C15
A   33
C16
A   34
C17
A   35
C18
A   36
C19
A   37
C20
A   38
C21
A   39
C22
A   40
C23
A   41
C24
A   42
C25
A   43
C26
A   44
C27
A   45
C28
A   46
C29
A   47
C30
A   48
C31
A   49
C32
A   50
C33
A   51
C34
A   52
C35
A   53
C36
A   54
C37
A   55
C38
A   56
C39
A   57
C40
M  END
>  <Id>  (7) 
5WF6_UKA_A_1201

>  <ChainId>  (7) 
A

>  <AsymId>  (7) 
B

>  <SeqNum>  (7) 
1201

>  <Name>  (7) 
6-(2,2-diphenylethylamino)-9-[(2R,3R,4S,5S)-5-(ethylcarbamoyl)-3,4-dihydroxy-oxolan-2-yl]-N-[2-[(1-pyridin-2-ylpiperidin-4-yl)carbamoylamino]ethyl]purine-2-carboxamide

>  <SystematicName>  (7) 
6-(2,2-diphenylethylamino)-9-[(2R,3R,4S,5S)-5-(ethylcarbamoyl)-3,4-dihydroxy-oxolan-2-yl]-N-[2-[(1-pyridin-2-ylpiperidin-4-yl)carbamoylamino]ethyl]purine-2-carboxamide

>  <Synonyms>  (7) 


>  <Type>  (7) 
NON-POLYMER

>  <Formula>  (7) 
C40 H47 N11 O6

>  <ObservedFormula>  (7) 
C40 N11 O6

>  <MolecularWeight>  (7) 
777.871

>  <ModifiedDate>  (7) 
2011-06-04

>  <Parent>  (7) 


>  <OneLetterCode>  (7) 


>  <SubcomponentList>  (7) 


>  <AmbiguousFlag>  (7) 
N

>  <InsertionCode>  (7) 


>  <InstanceId>  (7) 
5WF6_UKA_A_1201

>  <ChemCompId>  (7) 
UKA

>  <PdbId>  (7) 
5WF6

>  <ResidueNumber>  (7) 
1201

>  <InChI>  (7) 
InChI=1S/C40H47N11O6/c1-2-41-37(54)33-31(52)32(53)39(57-33)51-24-46-30-34(45-23-28(25-11-5-3-6-12-25)26-13-7-4-8-14-26)48-35(49-36(30)51)38(55)43-19-20-44-40(56)47-27-16-21-50(22-17-27)29-15-9-10-18-42-29/h3-15,18,24,27-28,31-33,39,52-53H,2,16-17,19-23H2,1H3,(H,41,54)(H,43,55)(H2,44,47,56)(H,45,48,49)/t31-,32+,33-,39+/m0/s1

>  <InChIKey>  (7) 
ZOTHAEBAWXWVID-HXEFRTELSA-N

>  <SMILES>  (7) 
CCNC(=O)[C@@H]1[C@H]([C@H]([C@@H](O1)n2cnc3c2nc(nc3NCC(c4ccccc4)c5ccccc5)C(=O)NCCNC(=O)NC6CCN(CC6)c7ccccn7)O)O

>  <MissingHeavyAtoms>  (7) 
0

>  <Model>  (7) 
1

>  <AltIds>  (7) 


>  <pKI>  (7) 
8.4

>  <ChemblID>  (7) 
CHEMBL1096896

>  <standardized_canonical_smiles>  (7) 
CCNC(=O)[C@H]1O[C@@H](n2cnc3c(NCC(c4ccccc4)c4ccccc4)nc(C(=O)NCCNC(=O)NC4CCN(c5ccccn5)CC4)nc32)[C@H](O)[C@@H]1O

$$$$
5WF5_UKA_A_1201
     RDKit          3D

 57 63  0  0  0  0  0  0  0  0999 V2000
  -21.2800   -8.9320    6.9600 C   0  0  0  0  0  0  0  0  0  0  0  0
  -20.3580   -7.5870    8.8630 N   0  0  0  0  0  0  0  0  0  0  0  0
  -19.0260   -8.2270    7.0590 O   0  0  0  0  0  0  0  0  0  0  0  0
  -21.0140   -7.9530    5.8160 C   0  0  0  0  0  0  0  0  0  0  0  0
  -18.1370   -6.6710    4.2070 N   0  0  0  0  0  0  0  0  0  0  0  0
  -21.6150   -8.3870    4.6020 O   0  0  0  0  0  0  0  0  0  0  0  0
  -19.4860   -7.9980    5.7200 C   0  0  0  0  0  0  0  0  0  0  0  0
  -20.3110   -5.5660    9.8510 N   0  0  0  0  0  0  0  0  0  0  0  0
  -21.2480  -10.2900    6.5330 O   0  0  0  0  0  0  0  0  0  0  0  0
  -20.1010   -8.6370    7.8830 C   0  0  0  0  0  0  0  0  0  0  0  0
  -21.9920   -7.5290   12.5170 N   0  0  0  0  0  0  0  0  0  0  0  0
  -19.4460   -5.6020    5.7010 O   0  0  0  0  0  0  0  0  0  0  0  0
  -19.0190   -6.6420    5.2060 C   0  0  0  0  0  0  0  0  0  0  0  0
  -21.4880   -8.8490   10.6030 N   0  0  0  0  0  0  0  0  0  0  0  0
  -22.6820  -10.9650   11.7760 O   0  0  0  0  0  0  0  0  0  0  0  0
  -17.5830   -5.4750    3.5750 C   0  0  0  0  0  0  0  0  0  0  0  0
  -21.3640   -5.3040   12.7430 N   0  0  0  0  0  0  0  0  0  0  0  0
  -25.5440  -10.2080   17.0950 O   0  0  0  0  0  0  0  0  0  0  0  0
  -16.8440   -5.8060    2.3190 C   0  0  0  0  0  0  0  0  0  0  0  0
  -23.3430   -9.7330   13.5410 N   0  0  0  0  0  0  0  0  0  0  0  0
  -20.0020   -6.2670    8.7870 C   0  0  0  0  0  0  0  0  0  0  0  0
  -23.4110   -9.9280   16.4150 N   0  0  0  0  0  0  0  0  0  0  0  0
  -20.9160   -6.4950   10.6870 C   0  0  0  0  0  0  0  0  0  0  0  0
  -24.2840   -8.5530   18.0010 N   0  0  0  0  0  0  0  0  0  0  0  0
  -20.9650   -7.7360   10.0870 C   0  0  0  0  0  0  0  0  0  0  0  0
  -26.5470   -5.9600   20.4730 N   0  0  0  0  0  0  0  0  0  0  0  0
  -21.4490   -6.4140   11.9930 C   0  0  0  0  0  0  0  0  0  0  0  0
  -25.2850   -4.3870   21.5930 N   0  0  0  0  0  0  0  0  0  0  0  0
  -22.0030   -8.6770   11.8240 C   0  0  0  0  0  0  0  0  0  0  0  0
  -21.6420   -5.2760   14.1700 C   0  0  0  0  0  0  0  0  0  0  0  0
  -22.9500   -4.5520   14.4880 C   0  0  0  0  0  0  0  0  0  0  0  0
  -23.0780   -4.1500   15.9520 C   0  0  0  0  0  0  0  0  0  0  0  0
  -24.1400   -5.3890   14.0430 C   0  0  0  0  0  0  0  0  0  0  0  0
  -22.1840   -4.6100   16.9090 C   0  0  0  0  0  0  0  0  0  0  0  0
  -22.3350   -4.2650   18.2400 C   0  0  0  0  0  0  0  0  0  0  0  0
  -23.3790   -3.4570   18.6320 C   0  0  0  0  0  0  0  0  0  0  0  0
  -24.2690   -2.9890   17.6930 C   0  0  0  0  0  0  0  0  0  0  0  0
  -24.1210   -3.3310   16.3610 C   0  0  0  0  0  0  0  0  0  0  0  0
  -24.8550   -5.0610   12.9000 C   0  0  0  0  0  0  0  0  0  0  0  0
  -25.9320   -5.8310   12.4970 C   0  0  0  0  0  0  0  0  0  0  0  0
  -26.3080   -6.9350   13.2290 C   0  0  0  0  0  0  0  0  0  0  0  0
  -25.6080   -7.2700   14.3660 C   0  0  0  0  0  0  0  0  0  0  0  0
  -24.5310   -6.5030   14.7730 C   0  0  0  0  0  0  0  0  0  0  0  0
  -22.7120   -9.8940   12.3770 C   0  0  0  0  0  0  0  0  0  0  0  0
  -24.0250  -10.8280   14.2140 C   0  0  0  0  0  0  0  0  0  0  0  0
  -23.4070  -11.1110   15.5660 C   0  0  0  0  0  0  0  0  0  0  0  0
  -24.4790   -9.6000   17.1650 C   0  0  0  0  0  0  0  0  0  0  0  0
  -25.3210   -8.0600   18.9040 C   0  0  0  0  0  0  0  0  0  0  0  0
  -24.7140   -7.5890   20.2120 C   0  0  0  0  0  0  0  0  0  0  0  0
  -25.8000   -7.0380   21.1280 C   0  0  0  0  0  0  0  0  0  0  0  0
  -27.1650   -6.4140   19.2240 C   0  0  0  0  0  0  0  0  0  0  0  0
  -26.1160   -6.9450   18.2560 C   0  0  0  0  0  0  0  0  0  0  0  0
  -26.9780   -3.6180   20.0720 C   0  0  0  0  0  0  0  0  0  0  0  0
  -26.6480   -2.3090   20.3710 C   0  0  0  0  0  0  0  0  0  0  0  0
  -25.6480   -2.0410   21.2730 C   0  0  0  0  0  0  0  0  0  0  0  0
  -24.9980   -3.1040   21.8560 C   0  0  0  0  0  0  0  0  0  0  0  0
  -26.2650   -4.6340   20.7120 C   0  0  0  0  0  0  0  0  0  0  0  0
  4  1  1  0
  9  1  1  0
 10  1  1  0
 10  2  1  0
 21  2  1  0
 25  2  1  0
  7  3  1  0
 10  3  1  0
  6  4  1  0
  7  4  1  0
 13  5  1  0
 16  5  1  0
 13  7  1  0
 21  8  2  0
 23  8  1  0
 27 11  2  0
 29 11  1  0
 13 12  2  0
 25 14  1  0
 29 14  2  0
 44 15  2  0
 19 16  1  0
 27 17  1  0
 30 17  1  0
 47 18  2  0
 44 20  1  0
 45 20  1  0
 46 22  1  0
 47 22  1  0
 25 23  2  0
 27 23  1  0
 47 24  1  0
 48 24  1  0
 50 26  1  0
 51 26  1  0
 57 26  1  0
 56 28  2  0
 57 28  1  0
 44 29  1  0
 31 30  1  0
 32 31  1  0
 33 31  1  0
 34 32  2  0
 38 32  1  0
 39 33  2  0
 43 33  1  0
 35 34  1  0
 36 35  2  0
 37 36  1  0
 38 37  2  0
 40 39  1  0
 41 40  2  0
 42 41  1  0
 43 42  2  0
 46 45  1  0
 49 48  1  0
 52 48  1  0
 50 49  1  0
 52 51  1  0
 54 53  1  0
 57 53  2  0
 55 54  2  0
 56 55  1  0
A    1
C1
A    2
N1
A    3
O1
A    4
C2
A    5
N2
A    6
O2
A    7
C3
A    8
N3
A    9
O3
A   10
C4
A   11
N4
A   12
O4
A   13
C5
A   14
N5
A   15
O5
A   16
C6
A   17
N6
A   18
O6
A   19
C7
A   20
N7
A   21
C8
A   22
N8
A   23
C9
A   24
N9
A   25
C10
A   26
N10
A   27
C11
A   28
N11
A   29
C12
A   30
C13
A   31
C14
A   32
C15
A   33
C16
A   34
C17
A   35
C18
A   36
C19
A   37
C20
A   38
C21
A   39
C22
A   40
C23
A   41
C24
A   42
C25
A   43
C26
A   44
C27
A   45
C28
A   46
C29
A   47
C30
A   48
C31
A   49
C32
A   50
C33
A   51
C34
A   52
C35
A   53
C36
A   54
C37
A   55
C38
A   56
C39
A   57
C40
M  END
>  <Id>  (8) 
5WF5_UKA_A_1201

>  <ChainId>  (8) 
A

>  <AsymId>  (8) 
B

>  <SeqNum>  (8) 
1201

>  <Name>  (8) 
6-(2,2-diphenylethylamino)-9-[(2R,3R,4S,5S)-5-(ethylcarbamoyl)-3,4-dihydroxy-oxolan-2-yl]-N-[2-[(1-pyridin-2-ylpiperidin-4-yl)carbamoylamino]ethyl]purine-2-carboxamide

>  <SystematicName>  (8) 
6-(2,2-diphenylethylamino)-9-[(2R,3R,4S,5S)-5-(ethylcarbamoyl)-3,4-dihydroxy-oxolan-2-yl]-N-[2-[(1-pyridin-2-ylpiperidin-4-yl)carbamoylamino]ethyl]purine-2-carboxamide

>  <Synonyms>  (8) 


>  <Type>  (8) 
NON-POLYMER

>  <Formula>  (8) 
C40 H47 N11 O6

>  <ObservedFormula>  (8) 
C40 N11 O6

>  <MolecularWeight>  (8) 
777.871

>  <ModifiedDate>  (8) 
2011-06-04

>  <Parent>  (8) 


>  <OneLetterCode>  (8) 


>  <SubcomponentList>  (8) 


>  <AmbiguousFlag>  (8) 
N

>  <InsertionCode>  (8) 


>  <InstanceId>  (8) 
5WF5_UKA_A_1201

>  <ChemCompId>  (8) 
UKA

>  <PdbId>  (8) 
5WF5

>  <ResidueNumber>  (8) 
1201

>  <InChI>  (8) 
InChI=1S/C40H47N11O6/c1-2-41-37(54)33-31(52)32(53)39(57-33)51-24-46-30-34(45-23-28(25-11-5-3-6-12-25)26-13-7-4-8-14-26)48-35(49-36(30)51)38(55)43-19-20-44-40(56)47-27-16-21-50(22-17-27)29-15-9-10-18-42-29/h3-15,18,24,27-28,31-33,39,52-53H,2,16-17,19-23H2,1H3,(H,41,54)(H,43,55)(H2,44,47,56)(H,45,48,49)/t31-,32+,33-,39+/m0/s1

>  <InChIKey>  (8) 
ZOTHAEBAWXWVID-HXEFRTELSA-N

>  <SMILES>  (8) 
CCNC(=O)[C@@H]1[C@H]([C@H]([C@@H](O1)n2cnc3c2nc(nc3NCC(c4ccccc4)c5ccccc5)C(=O)NCCNC(=O)NC6CCN(CC6)c7ccccn7)O)O

>  <MissingHeavyAtoms>  (8) 
0

>  <Model>  (8) 
1

>  <AltIds>  (8) 


>  <pKI>  (8) 
8.4

>  <ChemblID>  (8) 
CHEMBL1096896

>  <standardized_canonical_smiles>  (8) 
CCNC(=O)[C@H]1O[C@@H](n2cnc3c(NCC(c4ccccc4)c4ccccc4)nc(C(=O)NCCNC(=O)NC4CCN(c5ccccn5)CC4)nc32)[C@H](O)[C@@H]1O

$$$$
5OLZ_T4E_A_1201
     RDKit          3D

 21 23  0  0  0  0  0  0  0  0999 V2000
  -20.3010    8.2160   17.3370 N   0  0  0  0  0  0  0  0  0  0  0  0
  -21.2160    7.3840   17.0460 N   0  0  0  0  0  0  0  0  0  0  0  0
  -21.2210    6.0540   17.4230 C   0  0  0  0  0  0  0  0  0  0  0  0
  -20.0720    5.6320   18.2000 C   0  0  0  0  0  0  0  0  0  0  0  0
  -19.0770    6.5250   18.5160 N   0  0  0  0  0  0  0  0  0  0  0  0
  -19.1790    7.8250   18.0860 C   0  0  0  0  0  0  0  0  0  0  0  0
  -24.4500    3.3590   16.1260 C   0  0  0  0  0  0  0  0  0  0  0  0
  -24.7530    4.6150   16.7170 C   0  0  0  0  0  0  0  0  0  0  0  0
  -23.7050    5.4970   17.1380 C   0  0  0  0  0  0  0  0  0  0  0  0
  -22.3410    5.1460   16.9930 C   0  0  0  0  0  0  0  0  0  0  0  0
  -22.0920    3.8960   16.3760 C   0  0  0  0  0  0  0  0  0  0  0  0
  -23.1150    3.0520   15.9850 C   0  0  0  0  0  0  0  0  0  0  0  0
  -19.3000    1.5980   19.7350 C   0  0  0  0  0  0  0  0  0  0  0  0
  -20.6210    2.1150   19.7520 C   0  0  0  0  0  0  0  0  0  0  0  0
  -20.8800    3.4290   19.2630 C   0  0  0  0  0  0  0  0  0  0  0  0
  -19.8430    4.2250   18.7250 C   0  0  0  0  0  0  0  0  0  0  0  0
  -18.5410    3.6870   18.7300 C   0  0  0  0  0  0  0  0  0  0  0  0
  -18.2610    2.3900   19.2180 C   0  0  0  0  0  0  0  0  0  0  0  0
  -18.1790    8.7310   18.3970 N   0  0  0  0  0  0  0  0  0  0  0  0
  -22.5990    1.5050   15.2620 Cl  0  0  0  0  0  0  0  0  0  0  0  0
  -25.4250    2.5180   15.7250 O   0  0  0  0  0  0  0  0  0  0  0  0
  2  1  2  0
  6  1  1  0
  3  2  1  0
  4  3  2  0
 10  3  1  0
  5  4  1  0
 16  4  1  0
  6  5  2  0
 19  6  1  0
  8  7  2  0
 12  7  1  0
 21  7  1  0
  9  8  1  0
 10  9  2  0
 11 10  1  0
 12 11  2  0
 20 12  1  0
 14 13  2  0
 18 13  1  0
 15 14  1  0
 16 15  2  0
 17 16  1  0
 18 17  2  0
A    1
N2
A    2
N1
A    3
C6
A    4
C5
A    5
N4
A    6
C3
A    7
C10
A    8
C11
A    9
C12
A   10
C7
A   11
C8
A   12
C9
A   13
C16
A   14
C17
A   15
C18
A   16
C13
A   17
C14
A   18
C15
A   19
N3
A   20
CL1
A   21
O1
M  END
>  <Id>  (9) 
5OLZ_T4E_A_1201

>  <ChainId>  (9) 
A

>  <AsymId>  (9) 
B

>  <SeqNum>  (9) 
1201

>  <Name>  (9) 
4-(3-amino-5-phenyl-1,2,4-triazin-6-yl)-2-chlorophenol

>  <SystematicName>  (9) 
4-(3-azanyl-5-phenyl-1,2,4-triazin-6-yl)-2-chloranyl-phenol

>  <Synonyms>  (9) 


>  <Type>  (9) 
NON-POLYMER

>  <Formula>  (9) 
C15 H11 Cl N4 O

>  <ObservedFormula>  (9) 
C15 Cl N4 O

>  <MolecularWeight>  (9) 
298.727

>  <ModifiedDate>  (9) 
2012-03-16

>  <Parent>  (9) 


>  <OneLetterCode>  (9) 


>  <SubcomponentList>  (9) 


>  <AmbiguousFlag>  (9) 
N

>  <InsertionCode>  (9) 


>  <InstanceId>  (9) 
5OLZ_T4E_A_1201

>  <ChemCompId>  (9) 
T4E

>  <PdbId>  (9) 
5OLZ

>  <ResidueNumber>  (9) 
1201

>  <InChI>  (9) 
InChI=1S/C15H11ClN4O/c16-11-8-10(6-7-12(11)21)14-13(18-15(17)20-19-14)9-4-2-1-3-5-9/h1-8,21H,(H2,17,18,20)

>  <InChIKey>  (9) 
ZHUZHTHIEMXLRA-UHFFFAOYSA-N

>  <SMILES>  (9) 
c1ccc(cc1)c2c(nnc(n2)N)c3ccc(c(c3)Cl)O

>  <MissingHeavyAtoms>  (9) 
0

>  <Model>  (9) 
1

>  <AltIds>  (9) 


>  <pKI>  (9) 
8.85

>  <ChemblID>  (9) 
CHEMBL2024114

>  <standardized_canonical_smiles>  (9) 
Nc1nnc(-c2ccc(O)c(Cl)c2)c(-c2ccccc2)n1

$$$$
5OM4_T4E_A_1201
     RDKit          3D

 21 23  0  0  0  0  0  0  0  0999 V2000
  -20.3420    8.1730   17.3310 N   0  0  0  0  0  0  0  0  0  0  0  0
  -21.2330    7.3240   17.0480 N   0  0  0  0  0  0  0  0  0  0  0  0
  -21.2100    5.9910   17.4390 C   0  0  0  0  0  0  0  0  0  0  0  0
  -20.0470    5.5870   18.2130 C   0  0  0  0  0  0  0  0  0  0  0  0
  -19.0650    6.5040   18.5250 N   0  0  0  0  0  0  0  0  0  0  0  0
  -19.2040    7.8110   18.0740 C   0  0  0  0  0  0  0  0  0  0  0  0
  -24.4230    3.2790   16.1490 C   0  0  0  0  0  0  0  0  0  0  0  0
  -24.7320    4.5240   16.7490 C   0  0  0  0  0  0  0  0  0  0  0  0
  -23.6890    5.4160   17.1810 C   0  0  0  0  0  0  0  0  0  0  0  0
  -22.3130    5.0820   17.0160 C   0  0  0  0  0  0  0  0  0  0  0  0
  -22.0550    3.8310   16.3870 C   0  0  0  0  0  0  0  0  0  0  0  0
  -23.0900    2.9890   15.9930 C   0  0  0  0  0  0  0  0  0  0  0  0
  -19.3060    1.5460   19.7190 C   0  0  0  0  0  0  0  0  0  0  0  0
  -20.6160    2.0850   19.7450 C   0  0  0  0  0  0  0  0  0  0  0  0
  -20.8420    3.4000   19.2690 C   0  0  0  0  0  0  0  0  0  0  0  0
  -19.8010    4.1820   18.7330 C   0  0  0  0  0  0  0  0  0  0  0  0
  -18.5180    3.6290   18.7180 C   0  0  0  0  0  0  0  0  0  0  0  0
  -18.2660    2.3210   19.1940 C   0  0  0  0  0  0  0  0  0  0  0  0
  -18.2240    8.7540   18.3660 N   0  0  0  0  0  0  0  0  0  0  0  0
  -22.6280    1.4830   15.2700 Cl  0  0  0  0  0  0  0  0  0  0  0  0
  -25.3850    2.4280   15.7480 O   0  0  0  0  0  0  0  0  0  0  0  0
  2  1  2  0
  6  1  1  0
  3  2  1  0
  4  3  2  0
 10  3  1  0
  5  4  1  0
 16  4  1  0
  6  5  2  0
 19  6  1  0
  8  7  2  0
 12  7  1  0
 21  7  1  0
  9  8  1  0
 10  9  2  0
 11 10  1  0
 12 11  2  0
 20 12  1  0
 14 13  2  0
 18 13  1  0
 15 14  1  0
 16 15  2  0
 17 16  1  0
 18 17  2  0
A    1
N2
A    2
N1
A    3
C6
A    4
C5
A    5
N4
A    6
C3
A    7
C10
A    8
C11
A    9
C12
A   10
C7
A   11
C8
A   12
C9
A   13
C16
A   14
C17
A   15
C18
A   16
C13
A   17
C14
A   18
C15
A   19
N3
A   20
CL1
A   21
O1
M  END
>  <Id>  (10) 
5OM4_T4E_A_1201

>  <ChainId>  (10) 
A

>  <AsymId>  (10) 
B

>  <SeqNum>  (10) 
1201

>  <Name>  (10) 
4-(3-amino-5-phenyl-1,2,4-triazin-6-yl)-2-chlorophenol

>  <SystematicName>  (10) 
4-(3-azanyl-5-phenyl-1,2,4-triazin-6-yl)-2-chloranyl-phenol

>  <Synonyms>  (10) 


>  <Type>  (10) 
NON-POLYMER

>  <Formula>  (10) 
C15 H11 Cl N4 O

>  <ObservedFormula>  (10) 
C15 Cl N4 O

>  <MolecularWeight>  (10) 
298.727

>  <ModifiedDate>  (10) 
2012-03-16

>  <Parent>  (10) 


>  <OneLetterCode>  (10) 


>  <SubcomponentList>  (10) 


>  <AmbiguousFlag>  (10) 
N

>  <InsertionCode>  (10) 


>  <InstanceId>  (10) 
5OM4_T4E_A_1201

>  <ChemCompId>  (10) 
T4E

>  <PdbId>  (10) 
5OM4

>  <ResidueNumber>  (10) 
1201

>  <InChI>  (10) 
InChI=1S/C15H11ClN4O/c16-11-8-10(6-7-12(11)21)14-13(18-15(17)20-19-14)9-4-2-1-3-5-9/h1-8,21H,(H2,17,18,20)

>  <InChIKey>  (10) 
ZHUZHTHIEMXLRA-UHFFFAOYSA-N

>  <SMILES>  (10) 
c1ccc(cc1)c2c(nnc(n2)N)c3ccc(c(c3)Cl)O

>  <MissingHeavyAtoms>  (10) 
0

>  <Model>  (10) 
1

>  <AltIds>  (10) 


>  <pKI>  (10) 
8.85

>  <ChemblID>  (10) 
CHEMBL2024114

>  <standardized_canonical_smiles>  (10) 
Nc1nnc(-c2ccc(O)c(Cl)c2)c(-c2ccccc2)n1

$$$$
3UZC_T4E_A_330
     RDKit          3D

 21 23  0  0  0  0  0  0  0  0999 V2000
   23.6840    6.6660   32.0800 N   0  0  0  0  0  0  0  0  0  0  0  0
   23.1050    7.7810   32.5480 N   0  0  0  0  0  0  0  0  0  0  0  0
   23.1670    8.9370   31.8280 C   0  0  0  0  0  0  0  0  0  0  0  0
   23.8520    8.9450   30.5710 C   0  0  0  0  0  0  0  0  0  0  0  0
   24.4320    7.7990   30.1230 N   0  0  0  0  0  0  0  0  0  0  0  0
   24.3080    6.7380   30.9080 C   0  0  0  0  0  0  0  0  0  0  0  0
   21.1140   12.2590   33.6870 C   0  0  0  0  0  0  0  0  0  0  0  0
   20.4300   11.0610   33.4070 C   0  0  0  0  0  0  0  0  0  0  0  0
   21.1100    9.9870   32.8030 C   0  0  0  0  0  0  0  0  0  0  0  0
   22.4800   10.0830   32.4660 C   0  0  0  0  0  0  0  0  0  0  0  0
   23.1550   11.2920   32.7500 C   0  0  0  0  0  0  0  0  0  0  0  0
   22.4840   12.3760   33.3560 C   0  0  0  0  0  0  0  0  0  0  0  0
   24.3620   12.3440   27.9270 C   0  0  0  0  0  0  0  0  0  0  0  0
   23.1740   12.2040   28.6630 C   0  0  0  0  0  0  0  0  0  0  0  0
   23.0040   11.1020   29.5210 C   0  0  0  0  0  0  0  0  0  0  0  0
   24.0110   10.1160   29.6680 C   0  0  0  0  0  0  0  0  0  0  0  0
   25.2000   10.2810   28.9140 C   0  0  0  0  0  0  0  0  0  0  0  0
   25.3800   11.3810   28.0530 C   0  0  0  0  0  0  0  0  0  0  0  0
   24.8830    5.5990   30.4620 N   0  0  0  0  0  0  0  0  0  0  0  0
   23.3520   13.8360   33.6830 Cl  0  0  0  0  0  0  0  0  0  0  0  0
   20.4430   13.2930   34.2730 O   0  0  0  0  0  0  0  0  0  0  0  0
  2  1  2  0
  6  1  1  0
  3  2  1  0
  4  3  2  0
 10  3  1  0
  5  4  1  0
 16  4  1  0
  6  5  2  0
 19  6  1  0
  8  7  2  0
 12  7  1  0
 21  7  1  0
  9  8  1  0
 10  9  2  0
 11 10  1  0
 12 11  2  0
 20 12  1  0
 14 13  2  0
 18 13  1  0
 15 14  1  0
 16 15  2  0
 17 16  1  0
 18 17  2  0
A    1
N2
A    2
N1
A    3
C6
A    4
C5
A    5
N4
A    6
C3
A    7
C10
A    8
C11
A    9
C12
A   10
C7
A   11
C8
A   12
C9
A   13
C16
A   14
C17
A   15
C18
A   16
C13
A   17
C14
A   18
C15
A   19
N3
A   20
CL1
A   21
O1
M  END
>  <Id>  (11) 
3UZC_T4E_A_330

>  <ChainId>  (11) 
A

>  <AsymId>  (11) 
B

>  <SeqNum>  (11) 
330

>  <Name>  (11) 
4-(3-amino-5-phenyl-1,2,4-triazin-6-yl)-2-chlorophenol

>  <SystematicName>  (11) 
4-(3-azanyl-5-phenyl-1,2,4-triazin-6-yl)-2-chloranyl-phenol

>  <Synonyms>  (11) 


>  <Type>  (11) 
NON-POLYMER

>  <Formula>  (11) 
C15 H11 Cl N4 O

>  <ObservedFormula>  (11) 
C15 Cl N4 O

>  <MolecularWeight>  (11) 
298.727

>  <ModifiedDate>  (11) 
2012-03-16

>  <Parent>  (11) 


>  <OneLetterCode>  (11) 


>  <SubcomponentList>  (11) 


>  <AmbiguousFlag>  (11) 
N

>  <InsertionCode>  (11) 


>  <InstanceId>  (11) 
3UZC_T4E_A_330

>  <ChemCompId>  (11) 
T4E

>  <PdbId>  (11) 
3UZC

>  <ResidueNumber>  (11) 
330

>  <InChI>  (11) 
InChI=1S/C15H11ClN4O/c16-11-8-10(6-7-12(11)21)14-13(18-15(17)20-19-14)9-4-2-1-3-5-9/h1-8,21H,(H2,17,18,20)

>  <InChIKey>  (11) 
ZHUZHTHIEMXLRA-UHFFFAOYSA-N

>  <SMILES>  (11) 
c1ccc(cc1)c2c(nnc(n2)N)c3ccc(c(c3)Cl)O

>  <MissingHeavyAtoms>  (11) 
0

>  <Model>  (11) 
1

>  <AltIds>  (11) 


>  <pKI>  (11) 
8.85

>  <ChemblID>  (11) 
CHEMBL2024114

>  <standardized_canonical_smiles>  (11) 
Nc1nnc(-c2ccc(O)c(Cl)c2)c(-c2ccccc2)n1

$$$$
5OM1_T4E_A_1201
     RDKit          3D

 21 23  0  0  0  0  0  0  0  0999 V2000
   20.3590  171.6390   17.3880 N   0  0  0  0  0  0  0  0  0  0  0  0
   21.2480  172.4950   17.0920 N   0  0  0  0  0  0  0  0  0  0  0  0
   21.2230  173.8340   17.4730 C   0  0  0  0  0  0  0  0  0  0  0  0
   20.0680  174.2340   18.2590 C   0  0  0  0  0  0  0  0  0  0  0  0
   19.0950  173.3180   18.5900 N   0  0  0  0  0  0  0  0  0  0  0  0
   19.2310  172.0040   18.1510 C   0  0  0  0  0  0  0  0  0  0  0  0
   24.4670  176.5350   16.1540 C   0  0  0  0  0  0  0  0  0  0  0  0
   24.7580  175.2870   16.7370 C   0  0  0  0  0  0  0  0  0  0  0  0
   23.7050  174.4110   17.1690 C   0  0  0  0  0  0  0  0  0  0  0  0
   22.3350  174.7560   17.0330 C   0  0  0  0  0  0  0  0  0  0  0  0
   22.0910  176.0100   16.4300 C   0  0  0  0  0  0  0  0  0  0  0  0
   23.1310  176.8470   16.0280 C   0  0  0  0  0  0  0  0  0  0  0  0
   19.3400  178.2900   19.7520 C   0  0  0  0  0  0  0  0  0  0  0  0
   20.6430  177.7360   19.8050 C   0  0  0  0  0  0  0  0  0  0  0  0
   20.8650  176.4150   19.3280 C   0  0  0  0  0  0  0  0  0  0  0  0
   19.8270  175.6450   18.7740 C   0  0  0  0  0  0  0  0  0  0  0  0
   18.5480  176.2140   18.7360 C   0  0  0  0  0  0  0  0  0  0  0  0
   18.2980  177.5260   19.2130 C   0  0  0  0  0  0  0  0  0  0  0  0
   18.2590  171.0630   18.4730 N   0  0  0  0  0  0  0  0  0  0  0  0
   22.6480  178.3760   15.3130 Cl  0  0  0  0  0  0  0  0  0  0  0  0
   25.4590  177.3760   15.7450 O   0  0  0  0  0  0  0  0  0  0  0  0
  2  1  2  0
  6  1  1  0
  3  2  1  0
  4  3  2  0
 10  3  1  0
  5  4  1  0
 16  4  1  0
  6  5  2  0
 19  6  1  0
  8  7  2  0
 12  7  1  0
 21  7  1  0
  9  8  1  0
 10  9  2  0
 11 10  1  0
 12 11  2  0
 20 12  1  0
 14 13  2  0
 18 13  1  0
 15 14  1  0
 16 15  2  0
 17 16  1  0
 18 17  2  0
A    1
N2
A    2
N1
A    3
C6
A    4
C5
A    5
N4
A    6
C3
A    7
C10
A    8
C11
A    9
C12
A   10
C7
A   11
C8
A   12
C9
A   13
C16
A   14
C17
A   15
C18
A   16
C13
A   17
C14
A   18
C15
A   19
N3
A   20
CL1
A   21
O1
M  END
>  <Id>  (12) 
5OM1_T4E_A_1201

>  <ChainId>  (12) 
A

>  <AsymId>  (12) 
B

>  <SeqNum>  (12) 
1201

>  <Name>  (12) 
4-(3-amino-5-phenyl-1,2,4-triazin-6-yl)-2-chlorophenol

>  <SystematicName>  (12) 
4-(3-azanyl-5-phenyl-1,2,4-triazin-6-yl)-2-chloranyl-phenol

>  <Synonyms>  (12) 


>  <Type>  (12) 
NON-POLYMER

>  <Formula>  (12) 
C15 H11 Cl N4 O

>  <ObservedFormula>  (12) 
C15 Cl N4 O

>  <MolecularWeight>  (12) 
298.727

>  <ModifiedDate>  (12) 
2012-03-16

>  <Parent>  (12) 


>  <OneLetterCode>  (12) 


>  <SubcomponentList>  (12) 


>  <AmbiguousFlag>  (12) 
N

>  <InsertionCode>  (12) 


>  <InstanceId>  (12) 
5OM1_T4E_A_1201

>  <ChemCompId>  (12) 
T4E

>  <PdbId>  (12) 
5OM1

>  <ResidueNumber>  (12) 
1201

>  <InChI>  (12) 
InChI=1S/C15H11ClN4O/c16-11-8-10(6-7-12(11)21)14-13(18-15(17)20-19-14)9-4-2-1-3-5-9/h1-8,21H,(H2,17,18,20)

>  <InChIKey>  (12) 
ZHUZHTHIEMXLRA-UHFFFAOYSA-N

>  <SMILES>  (12) 
c1ccc(cc1)c2c(nnc(n2)N)c3ccc(c(c3)Cl)O

>  <MissingHeavyAtoms>  (12) 
0

>  <Model>  (12) 
1

>  <AltIds>  (12) 


>  <pKI>  (12) 
8.85

>  <ChemblID>  (12) 
CHEMBL2024114

>  <standardized_canonical_smiles>  (12) 
Nc1nnc(-c2ccc(O)c(Cl)c2)c(-c2ccccc2)n1

$$$$
3UZA_T4G_A_330
     RDKit          3D

 21 23  0  0  0  0  0  0  0  0999 V2000
   50.3560   24.0150   31.1080 N   0  0  0  0  0  0  0  0  0  0  0  0
   49.2100   23.5740   31.7030 N   0  0  0  0  0  0  0  0  0  0  0  0
   47.9190   23.6790   31.1470 C   0  0  0  0  0  0  0  0  0  0  0  0
   47.7660   24.2870   29.8490 C   0  0  0  0  0  0  0  0  0  0  0  0
   48.9630   24.7270   29.2700 N   0  0  0  0  0  0  0  0  0  0  0  0
   50.1990   24.5950   29.8740 C   0  0  0  0  0  0  0  0  0  0  0  0
   44.7950   21.9180   33.5160 N   0  0  0  0  0  0  0  0  0  0  0  0
   45.9570   21.2710   33.2720 C   0  0  0  0  0  0  0  0  0  0  0  0
   46.9960   21.8210   32.5030 C   0  0  0  0  0  0  0  0  0  0  0  0
   46.8330   23.1120   31.9590 C   0  0  0  0  0  0  0  0  0  0  0  0
   45.6210   23.7910   32.2040 C   0  0  0  0  0  0  0  0  0  0  0  0
   44.6390   23.1510   32.9890 C   0  0  0  0  0  0  0  0  0  0  0  0
   44.0520   24.9480   27.6990 C   0  0  0  0  0  0  0  0  0  0  0  0
   44.3230   23.6880   28.2610 C   0  0  0  0  0  0  0  0  0  0  0  0
   45.5200   23.4530   28.9610 C   0  0  0  0  0  0  0  0  0  0  0  0
   46.4830   24.4790   29.1200 C   0  0  0  0  0  0  0  0  0  0  0  0
   46.1940   25.7440   28.5460 C   0  0  0  0  0  0  0  0  0  0  0  0
   44.9950   25.9830   27.8440 C   0  0  0  0  0  0  0  0  0  0  0  0
   51.2870   25.0420   29.2410 N   0  0  0  0  0  0  0  0  0  0  0  0
   43.3270   23.8340   33.2850 C   0  0  0  0  0  0  0  0  0  0  0  0
   46.1210   19.8900   33.8680 C   0  0  0  0  0  0  0  0  0  0  0  0
  2  1  2  0
  6  1  1  0
  3  2  1  0
  4  3  2  0
 10  3  1  0
  5  4  1  0
 16  4  1  0
  6  5  2  0
 19  6  1  0
  8  7  2  0
 12  7  1  0
  9  8  1  0
 21  8  1  0
 10  9  2  0
 11 10  1  0
 12 11  2  0
 20 12  1  0
 14 13  2  0
 18 13  1  0
 15 14  1  0
 16 15  2  0
 17 16  1  0
 18 17  2  0
A    1
N2
A    2
N1
A    3
C6
A    4
C5
A    5
N4
A    6
C3
A    7
N5
A    8
C10
A    9
C11
A   10
C7
A   11
C8
A   12
C9
A   13
C17
A   14
C18
A   15
C19
A   16
C14
A   17
C15
A   18
C16
A   19
N3
A   20
C13
A   21
C12
M  END
>  <Id>  (13) 
3UZA_T4G_A_330

>  <ChainId>  (13) 
A

>  <AsymId>  (13) 
B

>  <SeqNum>  (13) 
330

>  <Name>  (13) 
6-(2,6-dimethylpyridin-4-yl)-5-phenyl-1,2,4-triazin-3-amine

>  <SystematicName>  (13) 
6-(2,6-dimethylpyridin-4-yl)-5-phenyl-1,2,4-triazin-3-amine

>  <Synonyms>  (13) 


>  <Type>  (13) 
NON-POLYMER

>  <Formula>  (13) 
C16 H15 N5

>  <ObservedFormula>  (13) 
C16 N5

>  <MolecularWeight>  (13) 
277.324

>  <ModifiedDate>  (13) 
2012-03-16

>  <Parent>  (13) 


>  <OneLetterCode>  (13) 


>  <SubcomponentList>  (13) 


>  <AmbiguousFlag>  (13) 
N

>  <InsertionCode>  (13) 


>  <InstanceId>  (13) 
3UZA_T4G_A_330

>  <ChemCompId>  (13) 
T4G

>  <PdbId>  (13) 
3UZA

>  <ResidueNumber>  (13) 
330

>  <InChI>  (13) 
InChI=1S/C16H15N5/c1-10-8-13(9-11(2)18-10)15-14(19-16(17)21-20-15)12-6-4-3-5-7-12/h3-9H,1-2H3,(H2,17,19,21)

>  <InChIKey>  (13) 
SORFNYWLKDSNNF-UHFFFAOYSA-N

>  <SMILES>  (13) 
Cc1cc(cc(n1)C)c2c(nc(nn2)N)c3ccccc3

>  <MissingHeavyAtoms>  (13) 
0

>  <Model>  (13) 
1

>  <AltIds>  (13) 


>  <pKI>  (13) 
8.11

>  <ChemblID>  (13) 
CHEMBL2024115

>  <standardized_canonical_smiles>  (13) 
Cc1cc(-c2nnc(N)nc2-c2ccccc2)cc(C)n1

$$$$
5OLO_9XW_A_1201
     RDKit          3D

 28 31  0  0  0  0  0  0  0  0999 V2000
   20.6720  174.9320   18.2590 C   0  0  0  0  0  0  0  0  0  0  0  0
   18.7490  173.2390   18.4820 C   0  0  0  0  0  0  0  0  0  0  0  0
   18.2380  170.7800   18.1210 C   0  0  0  0  0  0  0  0  0  0  0  0
   17.4530  168.3490   17.8260 C   0  0  0  0  0  0  0  0  0  0  0  0
   16.5780  168.0310   16.6190 C   0  0  0  0  0  0  0  0  0  0  0  0
   15.1270  168.3530   16.8590 C   0  0  0  0  0  0  0  0  0  0  0  0
   15.8340  169.9940   18.6070 C   0  0  0  0  0  0  0  0  0  0  0  0
   19.4700  175.3720   18.8160 C   0  0  0  0  0  0  0  0  0  0  0  0
   17.7000  178.5110   19.4290 C   0  0  0  0  0  0  0  0  0  0  0  0
   19.3210  176.7260   19.2480 C   0  0  0  0  0  0  0  0  0  0  0  0
   20.3590  177.5990   19.1200 C   0  0  0  0  0  0  0  0  0  0  0  0
   21.5930  177.1560   18.5510 C   0  0  0  0  0  0  0  0  0  0  0  0
   21.7470  175.8290   18.1230 C   0  0  0  0  0  0  0  0  0  0  0  0
   24.1120  175.1070   18.4140 C   0  0  0  0  0  0  0  0  0  0  0  0
   25.4400  175.1940   17.7260 C   0  0  0  0  0  0  0  0  0  0  0  0
   24.3830  174.8140   15.6300 C   0  0  0  0  0  0  0  0  0  0  0  0
   23.0430  174.7250   16.3100 C   0  0  0  0  0  0  0  0  0  0  0  0
   14.3780  168.2970   15.5340 C   0  0  0  0  0  0  0  0  0  0  0  0
   14.9050  169.7170   17.4500 C   0  0  0  0  0  0  0  0  0  0  0  0
   23.0090  175.4060   17.5490 N   0  0  0  0  0  0  0  0  0  0  0  0
   17.8450  172.1210   18.4950 N   0  0  0  0  0  0  0  0  0  0  0  0
   17.2120  169.7220   18.1920 N   0  0  0  0  0  0  0  0  0  0  0  0
   18.4630  174.4640   18.9250 N   0  0  0  0  0  0  0  0  0  0  0  0
   18.0740  177.1590   19.8180 O   0  0  0  0  0  0  0  0  0  0  0  0
   25.4530  174.4280   16.5140 O   0  0  0  0  0  0  0  0  0  0  0  0
   19.3740  170.5060   17.7560 O   0  0  0  0  0  0  0  0  0  0  0  0
   14.5820  167.3760   17.7410 O   0  0  0  0  0  0  0  0  0  0  0  0
   20.3970  173.2690   17.8900 S   0  0  0  0  0  0  0  0  0  0  0  0
  8  1  1  0
 13  1  2  0
 28  1  1  0
 21  2  1  0
 23  2  2  0
 28  2  1  0
 21  3  1  0
 22  3  1  0
 26  3  2  0
  5  4  1  0
 22  4  1  0
  6  5  1  0
 18  6  1  0
 19  6  1  0
 27  6  1  0
 19  7  1  0
 22  7  1  0
 10  8  2  0
 23  8  1  0
 24  9  1  0
 11 10  1  0
 24 10  1  0
 12 11  2  0
 13 12  1  0
 20 13  1  0
 15 14  1  0
 20 14  1  0
 25 15  1  0
 17 16  1  0
 25 16  1  0
 20 17  1  0
A    1
C13
A    2
C15
A    3
C17
A    4
C20
A    5
C21
A    6
C22
A    7
C26
A    8
C28
A    9
C01
A   10
C03
A   11
C04
A   12
C05
A   13
C06
A   14
C08
A   15
C09
A   16
C11
A   17
C12
A   18
C23
A   19
C25
A   20
N07
A   21
N16
A   22
N19
A   23
N27
A   24
O02
A   25
O10
A   26
O18
A   27
O24
A   28
S14
M  END
>  <Id>  (14) 
5OLO_9XW_A_1201

>  <ChainId>  (14) 
A

>  <AsymId>  (14) 
B

>  <SeqNum>  (14) 
1201

>  <Name>  (14) 
~{N}-(4-methoxy-7-morpholin-4-yl-1,3-benzothiazol-2-yl)-4-methyl-4-oxidanyl-piperidine-1-carboxamide

>  <SystematicName>  (14) 
~{N}-(4-methoxy-7-morpholin-4-yl-1,3-benzothiazol-2-yl)-4-methyl-4-oxidanyl-piperidine-1-carboxamide

>  <Synonyms>  (14) 


>  <Type>  (14) 
NON-POLYMER

>  <Formula>  (14) 
C19 H26 N4 O4 S

>  <ObservedFormula>  (14) 
C19 S N4 O4

>  <MolecularWeight>  (14) 
406.499

>  <ModifiedDate>  (14) 
2018-01-12

>  <Parent>  (14) 


>  <OneLetterCode>  (14) 


>  <SubcomponentList>  (14) 


>  <AmbiguousFlag>  (14) 
N

>  <InsertionCode>  (14) 


>  <InstanceId>  (14) 
5OLO_9XW_A_1201

>  <ChemCompId>  (14) 
9XW

>  <PdbId>  (14) 
5OLO

>  <ResidueNumber>  (14) 
1201

>  <InChI>  (14) 
InChI=1S/C19H26N4O4S/c1-19(25)5-7-23(8-6-19)18(24)21-17-20-15-14(26-2)4-3-13(16(15)28-17)22-9-11-27-12-10-22/h3-4,25H,5-12H2,1-2H3,(H,20,21,24)

>  <InChIKey>  (14) 
XNBRWUQWSKXMPW-UHFFFAOYSA-N

>  <SMILES>  (14) 
CC1(CCN(CC1)C(=O)Nc2nc3c(ccc(c3s2)N4CCOCC4)OC)O

>  <MissingHeavyAtoms>  (14) 
0

>  <Model>  (14) 
1

>  <AltIds>  (14) 


>  <pKI>  (14) 
8.3

>  <ChemblID>  (14) 
CHEMBL2105747

>  <standardized_canonical_smiles>  (14) 
COc1ccc(N2CCOCC2)c2sc(NC(=O)N3CCC(C)(O)CC3)nc12

$$$$
5IU8_6DZ_A_2401
     RDKit          3D

 25 28  0  0  0  0  0  0  0  0999 V2000
  -20.9350    5.3830   17.7500 N   0  0  0  0  0  0  0  0  0  0  0  0
  -19.8330    5.0060   18.4450 C   0  0  0  0  0  0  0  0  0  0  0  0
  -20.4510    2.6120   19.2170 C   0  0  0  0  0  0  0  0  0  0  0  0
  -19.7350    1.5240   19.7000 C   0  0  0  0  0  0  0  0  0  0  0  0
  -18.3990    1.8890   19.7530 C   0  0  0  0  0  0  0  0  0  0  0  0
  -19.6060   13.0600   15.6520 C   0  0  0  0  0  0  0  0  0  0  0  0
  -18.8750   16.3740   14.7430 C   0  0  0  0  0  0  0  0  0  0  0  0
  -19.0470   15.1190   14.5710 N   0  0  0  0  0  0  0  0  0  0  0  0
  -20.0920   14.9190   13.7300 C   0  0  0  0  0  0  0  0  0  0  0  0
  -20.4780   13.4570   13.6270 C   0  0  0  0  0  0  0  0  0  0  0  0
  -20.6880   12.9210   14.8500 N   0  0  0  0  0  0  0  0  0  0  0  0
  -21.0210   11.6910   14.7430 C   0  0  0  0  0  0  0  0  0  0  0  0
  -21.6910   11.2090   16.0130 C   0  0  0  0  0  0  0  0  0  0  0  0
  -22.0080    9.8260   15.9130 N   0  0  0  0  0  0  0  0  0  0  0  0
  -21.1980    8.8940   16.6090 C   0  0  0  0  0  0  0  0  0  0  0  0
  -21.5990    7.6170   16.7620 N   0  0  0  0  0  0  0  0  0  0  0  0
  -20.7910    6.7280   17.4420 C   0  0  0  0  0  0  0  0  0  0  0  0
  -19.0230    6.0730   18.5640 N   0  0  0  0  0  0  0  0  0  0  0  0
  -19.6360    7.1320   17.9380 N   0  0  0  0  0  0  0  0  0  0  0  0
  -19.2310    8.4390   17.7800 C   0  0  0  0  0  0  0  0  0  0  0  0
  -17.9880    8.8670   18.3140 N   0  0  0  0  0  0  0  0  0  0  0  0
  -20.0170    9.3040   17.1180 N   0  0  0  0  0  0  0  0  0  0  0  0
  -19.5360    3.6270   18.9840 C   0  0  0  0  0  0  0  0  0  0  0  0
  -18.3090    3.1640   19.3120 O   0  0  0  0  0  0  0  0  0  0  0  0
  -19.1910   14.5120   15.7750 C   0  0  0  0  0  0  0  0  0  0  0  0
  2  1  1  0
 17  1  2  0
 18  2  2  0
 23  2  1  0
  4  3  1  0
 23  3  2  0
  5  4  2  0
 24  5  1  0
 11  6  1  0
 25  6  1  0
  8  7  1  0
  9  8  1  0
 25  8  1  0
 10  9  1  0
 11 10  1  0
 12 11  1  0
 13 12  1  0
 14 13  1  0
 15 14  1  0
 16 15  2  0
 22 15  1  0
 17 16  1  0
 19 17  1  0
 19 18  1  0
 20 19  1  0
 21 20  1  0
 22 20  2  0
 24 23  1  0
A    1
N12
A    2
C13
A    3
C20
A    4
C21
A    5
C22
A    6
C24
A    7
C01
A    8
N02
A    9
C03
A   10
C04
A   11
N05
A   12
C06
A   13
C07
A   14
N08
A   15
C09
A   16
N10
A   17
C11
A   18
N14
A   19
N15
A   20
C16
A   21
N17
A   22
N18
A   23
C19
A   24
O23
A   25
C25
M  END
>  <Id>  (15) 
5IU8_6DZ_A_2401

>  <ChainId>  (15) 
A

>  <AsymId>  (15) 
C

>  <SeqNum>  (15) 
2401

>  <Name>  (15) 
2-(furan-2-yl)-N~5~-[2-(4-methylpiperazin-1-yl)ethyl][1,2,4]triazolo[1,5-a][1,3,5]triazine-5,7-diamine

>  <SystematicName>  (15) 
2-(furan-2-yl)-~{N}5-[2-(4-methylpiperazin-1-yl)ethyl]-[1,2,4]triazolo[1,5-a][1,3,5]triazine-5,7-diamine

>  <Synonyms>  (15) 


>  <Type>  (15) 
NON-POLYMER

>  <Formula>  (15) 
C15 H21 N9 O

>  <ObservedFormula>  (15) 
C15 N9 O

>  <MolecularWeight>  (15) 
343.387

>  <ModifiedDate>  (15) 
2016-06-24

>  <Parent>  (15) 


>  <OneLetterCode>  (15) 


>  <SubcomponentList>  (15) 


>  <AmbiguousFlag>  (15) 
N

>  <InsertionCode>  (15) 


>  <InstanceId>  (15) 
5IU8_6DZ_A_2401

>  <ChemCompId>  (15) 
6DZ

>  <PdbId>  (15) 
5IU8

>  <ResidueNumber>  (15) 
2401

>  <InChI>  (15) 
InChI=1S/C15H21N9O/c1-22-6-8-23(9-7-22)5-4-17-14-19-13(16)24-15(20-14)18-12(21-24)11-3-2-10-25-11/h2-3,10H,4-9H2,1H3,(H3,16,17,18,19,20,21)

>  <InChIKey>  (15) 
NLHRMBTYEDTOKC-UHFFFAOYSA-N

>  <SMILES>  (15) 
CN1CCN(CC1)CCNc2nc(n3c(n2)nc(n3)c4ccco4)N

>  <MissingHeavyAtoms>  (15) 
0

>  <Model>  (15) 
1

>  <AltIds>  (15) 


>  <pKI>  (15) 
7.74

>  <ChemblID>  (15) 
-

>  <standardized_canonical_smiles>  (15) 
CN1CCN(CCNc2nc(N)n3nc(-c4ccco4)nc3n2)CC1

$$$$
5IUA_6DX_A_2401
     RDKit          3D

 31 35  0  0  0  0  0  0  0  0999 V2000
  -21.0550   14.8060   14.4660 C   0  0  0  0  0  0  0  0  0  0  0  0
  -18.7130   14.3340   15.8520 C   0  0  0  0  0  0  0  0  0  0  0  0
  -18.1010   16.1010   14.2420 C   0  0  0  0  0  0  0  0  0  0  0  0
  -16.7530   15.7550   12.2670 C   0  0  0  0  0  0  0  0  0  0  0  0
  -17.8270   17.4590   14.1880 C   0  0  0  0  0  0  0  0  0  0  0  0
  -21.0760    6.6640   17.4580 C   0  0  0  0  0  0  0  0  0  0  0  0
  -20.0150    4.9930   18.4320 C   0  0  0  0  0  0  0  0  0  0  0  0
  -16.4800   17.1150   12.2170 C   0  0  0  0  0  0  0  0  0  0  0  0
  -17.0150   17.9660   13.1740 C   0  0  0  0  0  0  0  0  0  0  0  0
  -17.5620   15.2500   13.2780 C   0  0  0  0  0  0  0  0  0  0  0  0
  -19.4730   13.2170   15.1180 C   0  0  0  0  0  0  0  0  0  0  0  0
  -20.3040   15.8560   15.2850 C   0  0  0  0  0  0  0  0  0  0  0  0
  -18.2590    8.8970   18.0590 N   0  0  0  0  0  0  0  0  0  0  0  0
  -19.5380    8.4200   17.6300 C   0  0  0  0  0  0  0  0  0  0  0  0
  -20.4050    9.2450   17.0000 N   0  0  0  0  0  0  0  0  0  0  0  0
  -21.6240    8.7800   16.5920 C   0  0  0  0  0  0  0  0  0  0  0  0
  -22.5380    9.6420   15.9250 N   0  0  0  0  0  0  0  0  0  0  0  0
  -22.2140   11.0490   15.7670 C   0  0  0  0  0  0  0  0  0  0  0  0
  -21.3040   11.2390   14.5390 C   0  0  0  0  0  0  0  0  0  0  0  0
  -21.3020   12.7040   14.0310 C   0  0  0  0  0  0  0  0  0  0  0  0
  -20.8140   13.5030   14.8930 N   0  0  0  0  0  0  0  0  0  0  0  0
  -18.9600   15.5730   15.3120 N   0  0  0  0  0  0  0  0  0  0  0  0
  -21.9650    7.5110   16.8100 N   0  0  0  0  0  0  0  0  0  0  0  0
  -21.1690    5.3300   17.8120 N   0  0  0  0  0  0  0  0  0  0  0  0
  -19.2080    6.0860   18.4630 N   0  0  0  0  0  0  0  0  0  0  0  0
  -19.8880    7.1120   17.8570 N   0  0  0  0  0  0  0  0  0  0  0  0
  -19.6770    3.5940   18.9780 C   0  0  0  0  0  0  0  0  0  0  0  0
  -20.5870    2.5580   19.2260 C   0  0  0  0  0  0  0  0  0  0  0  0
  -19.8430    1.4610   19.6970 C   0  0  0  0  0  0  0  0  0  0  0  0
  -18.5030    1.8400   19.7230 C   0  0  0  0  0  0  0  0  0  0  0  0
  -18.4290    3.1370   19.2770 O   0  0  0  0  0  0  0  0  0  0  0  0
 12  1  1  0
 21  1  1  0
 11  2  1  0
 22  2  1  0
  5  3  1  0
 10  3  2  0
 22  3  1  0
  8  4  2  0
 10  4  1  0
  9  5  2  0
 23  6  1  0
 24  6  2  0
 26  6  1  0
 24  7  1  0
 25  7  2  0
 27  7  1  0
  9  8  1  0
 21 11  1  0
 22 12  1  0
 14 13  1  0
 15 14  2  0
 26 14  1  0
 16 15  1  0
 17 16  1  0
 23 16  2  0
 18 17  1  0
 19 18  1  0
 20 19  1  0
 21 20  1  0
 26 25  1  0
 28 27  2  0
 31 27  1  0
 29 28  1  0
 30 29  2  0
 31 30  1  0
A    1
C10
A    2
C13
A    3
C15
A    4
C17
A    5
C20
A    6
C22
A    7
C24
A    8
C18
A    9
C19
A   10
C16
A   11
C14
A   12
C11
A   13
N01
A   14
C02
A   15
N03
A   16
C04
A   17
N05
A   18
C06
A   19
C07
A   20
C08
A   21
N09
A   22
N12
A   23
N21
A   24
N23
A   25
N25
A   26
N26
A   27
C27
A   28
C28
A   29
C29
A   30
C30
A   31
O31
M  END
>  <Id>  (16) 
5IUA_6DX_A_2401

>  <ChainId>  (16) 
A

>  <AsymId>  (16) 
C

>  <SeqNum>  (16) 
2401

>  <Name>  (16) 
2-(furan-2-yl)-N~5~-[3-(4-phenylpiperazin-1-yl)propyl][1,2,4]triazolo[1,5-a][1,3,5]triazine-5,7-diamine

>  <SystematicName>  (16) 
2-(furan-2-yl)-~{N}5-[3-(4-phenylpiperazin-1-yl)propyl]-[1,2,4]triazolo[1,5-a][1,3,5]triazine-5,7-diamine

>  <Synonyms>  (16) 


>  <Type>  (16) 
NON-POLYMER

>  <Formula>  (16) 
C21 H25 N9 O

>  <ObservedFormula>  (16) 
C21 N9 O

>  <MolecularWeight>  (16) 
419.483

>  <ModifiedDate>  (16) 
2016-06-24

>  <Parent>  (16) 


>  <OneLetterCode>  (16) 


>  <SubcomponentList>  (16) 


>  <AmbiguousFlag>  (16) 
N

>  <InsertionCode>  (16) 


>  <InstanceId>  (16) 
5IUA_6DX_A_2401

>  <ChemCompId>  (16) 
6DX

>  <PdbId>  (16) 
5IUA

>  <ResidueNumber>  (16) 
2401

>  <InChI>  (16) 
InChI=1S/C21H25N9O/c22-19-25-20(26-21-24-18(27-30(19)21)17-8-4-15-31-17)23-9-5-10-28-11-13-29(14-12-28)16-6-2-1-3-7-16/h1-4,6-8,15H,5,9-14H2,(H3,22,23,24,25,26,27)

>  <InChIKey>  (16) 
ATLUGIZVRICDDK-UHFFFAOYSA-N

>  <SMILES>  (16) 
c1ccc(cc1)N2CCN(CC2)CCCNc3nc(n4c(n3)nc(n4)c5ccco5)N

>  <MissingHeavyAtoms>  (16) 
0

>  <Model>  (16) 
1

>  <AltIds>  (16) 


>  <pKI>  (16) 
8.82

>  <ChemblID>  (16) 
-

>  <standardized_canonical_smiles>  (16) 
Nc1nc(NCCCN2CCN(c3ccccc3)CC2)nc2nc(-c3ccco3)nn12

$$$$
5IU7_6DY_A_2401
     RDKit          3D

 30 34  0  0  0  0  0  0  0  0999 V2000
    0.3750   14.2570   13.1980 C   0  0  0  0  0  0  0  0  0  0  0  0
    0.3080   12.8360   15.6550 C   0  0  0  0  0  0  0  0  0  0  0  0
    3.1880   16.0580   12.9710 C   0  0  0  0  0  0  0  0  0  0  0  0
    3.7830   18.2890   13.6900 C   0  0  0  0  0  0  0  0  0  0  0  0
   -1.2760    6.6520   17.4860 C   0  0  0  0  0  0  0  0  0  0  0  0
   -0.2370    5.0050   18.4870 C   0  0  0  0  0  0  0  0  0  0  0  0
    2.9170   18.0990   14.7720 C   0  0  0  0  0  0  0  0  0  0  0  0
    2.2040   16.9070   14.9270 C   0  0  0  0  0  0  0  0  0  0  0  0
    3.9020   17.2340   12.7900 C   0  0  0  0  0  0  0  0  0  0  0  0
    0.9510   14.2120   15.5810 C   0  0  0  0  0  0  0  0  0  0  0  0
    2.3130   15.8070   14.0410 C   0  0  0  0  0  0  0  0  0  0  0  0
    1.5300   14.4950   14.1770 C   0  0  0  0  0  0  0  0  0  0  0  0
    1.5640    8.8600   18.3380 N   0  0  0  0  0  0  0  0  0  0  0  0
    0.3600    8.4130   17.8420 C   0  0  0  0  0  0  0  0  0  0  0  0
   -0.4680    9.2510   17.1870 N   0  0  0  0  0  0  0  0  0  0  0  0
   -1.7030    8.7770   16.6750 C   0  0  0  0  0  0  0  0  0  0  0  0
   -2.4590    9.7180   16.0480 N   0  0  0  0  0  0  0  0  0  0  0  0
   -2.1570   11.0710   15.8450 C   0  0  0  0  0  0  0  0  0  0  0  0
   -1.2130   11.2540   14.6530 C   0  0  0  0  0  0  0  0  0  0  0  0
   -0.7940   12.6860   14.6470 N   0  0  0  0  0  0  0  0  0  0  0  0
   -0.2180   12.8710   13.2620 C   0  0  0  0  0  0  0  0  0  0  0  0
   -2.0940    7.5130   16.8150 N   0  0  0  0  0  0  0  0  0  0  0  0
   -1.3960    5.3500   17.7940 N   0  0  0  0  0  0  0  0  0  0  0  0
    0.6320    6.0510   18.6060 N   0  0  0  0  0  0  0  0  0  0  0  0
    0.0020    7.0930   18.0240 N   0  0  0  0  0  0  0  0  0  0  0  0
    0.0330    3.6970   18.9720 C   0  0  0  0  0  0  0  0  0  0  0  0
   -0.7500    2.5970   19.1940 C   0  0  0  0  0  0  0  0  0  0  0  0
    0.1000    1.5130   19.6750 C   0  0  0  0  0  0  0  0  0  0  0  0
    1.4020    2.0660   19.7150 C   0  0  0  0  0  0  0  0  0  0  0  0
    1.3240    3.3890   19.2950 O   0  0  0  0  0  0  0  0  0  0  0  0
 12  1  1  0
 21  1  1  0
 10  2  1  0
 20  2  1  0
  9  3  2  0
 11  3  1  0
  7  4  2  0
  9  4  1  0
 22  5  1  0
 23  5  2  0
 25  5  1  0
 23  6  1  0
 24  6  2  0
 26  6  1  0
  8  7  1  0
 11  8  2  0
 12 10  1  0
 12 11  1  0
 14 13  1  0
 15 14  2  0
 25 14  1  0
 16 15  1  0
 17 16  1  0
 22 16  2  0
 18 17  1  0
 19 18  1  0
 20 19  1  0
 21 20  1  0
 25 24  1  0
 27 26  2  0
 30 26  1  0
 28 27  1  0
 29 28  2  0
 30 29  1  0
A    1
C10
A    2
C13
A    3
C15
A    4
C17
A    5
C21
A    6
C23
A    7
C18
A    8
C19
A    9
C16
A   10
C12
A   11
C14
A   12
C11
A   13
N01
A   14
C02
A   15
N03
A   16
C04
A   17
N05
A   18
C06
A   19
C07
A   20
N08
A   21
C09
A   22
N20
A   23
N22
A   24
N24
A   25
N25
A   26
C26
A   27
C27
A   28
C28
A   29
C29
A   30
O30
M  END
>  <Id>  (17) 
5IU7_6DY_A_2401

>  <ChainId>  (17) 
A

>  <AsymId>  (17) 
C

>  <SeqNum>  (17) 
2401

>  <Name>  (17) 
2-(furan-2-yl)-N~5~-[2-(4-phenylpiperidin-1-yl)ethyl][1,2,4]triazolo[1,5-a][1,3,5]triazine-5,7-diamine

>  <SystematicName>  (17) 
2-(furan-2-yl)-~{N}5-[2-(4-phenylpiperidin-1-yl)ethyl]-[1,2,4]triazolo[1,5-a][1,3,5]triazine-5,7-diamine

>  <Synonyms>  (17) 


>  <Type>  (17) 
NON-POLYMER

>  <Formula>  (17) 
C21 H24 N8 O

>  <ObservedFormula>  (17) 
C21 N8 O

>  <MolecularWeight>  (17) 
404.468

>  <ModifiedDate>  (17) 
2016-06-24

>  <Parent>  (17) 


>  <OneLetterCode>  (17) 


>  <SubcomponentList>  (17) 


>  <AmbiguousFlag>  (17) 
N

>  <InsertionCode>  (17) 


>  <InstanceId>  (17) 
5IU7_6DY_A_2401

>  <ChemCompId>  (17) 
6DY

>  <PdbId>  (17) 
5IU7

>  <ResidueNumber>  (17) 
2401

>  <InChI>  (17) 
InChI=1S/C21H24N8O/c22-19-25-20(26-21-24-18(27-29(19)21)17-7-4-14-30-17)23-10-13-28-11-8-16(9-12-28)15-5-2-1-3-6-15/h1-7,14,16H,8-13H2,(H3,22,23,24,25,26,27)

>  <InChIKey>  (17) 
WUOOFKSGLYZAKD-UHFFFAOYSA-N

>  <SMILES>  (17) 
c1ccc(cc1)C2CCN(CC2)CCNc3nc(n4c(n3)nc(n4)c5ccco5)N

>  <MissingHeavyAtoms>  (17) 
0

>  <Model>  (17) 
1

>  <AltIds>  (17) 


>  <pKI>  (17) 
8.96

>  <ChemblID>  (17) 
-

>  <standardized_canonical_smiles>  (17) 
Nc1nc(NCCN2CCC(c3ccccc3)CC2)nc2nc(-c3ccco3)nn12

$$$$
5IUB_6DV_A_2401
     RDKit          3D

 32 36  0  0  0  0  0  0  0  0999 V2000
  -19.7100   14.2410   13.2000 C   0  0  0  0  0  0  0  0  0  0  0  0
  -19.5450   12.4790   15.4160 C   0  0  0  0  0  0  0  0  0  0  0  0
  -17.4670   16.3480   14.9660 C   0  0  0  0  0  0  0  0  0  0  0  0
  -15.8630   17.5220   13.5890 C   0  0  0  0  0  0  0  0  0  0  0  0
  -16.9500   15.5280   12.7480 C   0  0  0  0  0  0  0  0  0  0  0  0
  -19.9270    4.9120   18.3960 C   0  0  0  0  0  0  0  0  0  0  0  0
  -20.9900    6.4740   17.4570 C   0  0  0  0  0  0  0  0  0  0  0  0
  -16.0530   16.5840   12.5710 C   0  0  0  0  0  0  0  0  0  0  0  0
  -16.5700   17.4020   14.7850 C   0  0  0  0  0  0  0  0  0  0  0  0
  -19.0460   13.9340   15.4580 C   0  0  0  0  0  0  0  0  0  0  0  0
  -17.6700   15.3980   13.9520 C   0  0  0  0  0  0  0  0  0  0  0  0
  -18.1760    8.7420   18.0520 N   0  0  0  0  0  0  0  0  0  0  0  0
  -19.4000    8.2400   17.6490 C   0  0  0  0  0  0  0  0  0  0  0  0
  -20.2580    9.0790   17.0200 N   0  0  0  0  0  0  0  0  0  0  0  0
  -21.4560    8.5570   16.6330 C   0  0  0  0  0  0  0  0  0  0  0  0
  -22.3800    9.3810   15.9780 N   0  0  0  0  0  0  0  0  0  0  0  0
  -22.1140   10.7940   15.7620 C   0  0  0  0  0  0  0  0  0  0  0  0
  -21.2840   11.0440   14.4940 C   0  0  0  0  0  0  0  0  0  0  0  0
  -20.3440   12.8300   13.1840 C   0  0  0  0  0  0  0  0  0  0  0  0
  -14.9940   18.5460   13.4230 F   0  0  0  0  0  0  0  0  0  0  0  0
  -17.1090   14.6370   11.7400 F   0  0  0  0  0  0  0  0  0  0  0  0
  -21.8660    7.2720   16.8270 N   0  0  0  0  0  0  0  0  0  0  0  0
  -21.0820    5.1670   17.8000 N   0  0  0  0  0  0  0  0  0  0  0  0
  -19.0700    5.9230   18.4810 N   0  0  0  0  0  0  0  0  0  0  0  0
  -19.7530    6.9360   17.8760 N   0  0  0  0  0  0  0  0  0  0  0  0
  -19.6390    3.5520   18.9220 C   0  0  0  0  0  0  0  0  0  0  0  0
  -20.4420    2.4350   19.1610 C   0  0  0  0  0  0  0  0  0  0  0  0
  -19.6200    1.4190   19.6590 C   0  0  0  0  0  0  0  0  0  0  0  0
  -18.3480    1.9600   19.6990 C   0  0  0  0  0  0  0  0  0  0  0  0
  -18.3550    3.2430   19.2550 O   0  0  0  0  0  0  0  0  0  0  0  0
  -18.5740   14.3290   14.1260 N   0  0  0  0  0  0  0  0  0  0  0  0
  -20.7050   12.3780   14.5240 N   0  0  0  0  0  0  0  0  0  0  0  0
 19  1  1  0
 31  1  1  0
 10  2  1  0
 32  2  1  0
  9  3  2  0
 11  3  1  0
  8  4  2  0
  9  4  1  0
 20  4  1  0
  8  5  1  0
 11  5  2  0
 21  5  1  0
 23  6  1  0
 24  6  2  0
 26  6  1  0
 22  7  1  0
 23  7  2  0
 25  7  1  0
 31 10  1  0
 31 11  1  0
 13 12  1  0
 14 13  2  0
 25 13  1  0
 15 14  1  0
 16 15  1  0
 22 15  2  0
 17 16  1  0
 18 17  1  0
 32 18  1  0
 32 19  1  0
 25 24  1  0
 27 26  2  0
 30 26  1  0
 28 27  1  0
 29 28  2  0
 30 29  1  0
A    1
C10
A    2
C13
A    3
C15
A    4
C17
A    5
C20
A    6
C25
A    7
C23
A    8
C19
A    9
C16
A   10
C12
A   11
C14
A   12
N01
A   13
C02
A   14
N03
A   15
C04
A   16
N05
A   17
C06
A   18
C07
A   19
C09
A   20
F18
A   21
F21
A   22
N22
A   23
N24
A   24
N26
A   25
N27
A   26
C28
A   27
C29
A   28
C30
A   29
C31
A   30
O32
A   31
N1
A   32
N2
M  END
>  <Id>  (18) 
5IUB_6DV_A_2401

>  <ChainId>  (18) 
A

>  <AsymId>  (18) 
C

>  <SeqNum>  (18) 
2401

>  <Name>  (18) 
N~5~-{2-[4-(2,4-difluorophenyl)piperazin-1-yl]ethyl}-2-(furan-2-yl)[1,2,4]triazolo[1,5-a][1,3,5]triazine-5,7-diamine

>  <SystematicName>  (18) 
~{N}5-[2-[4-[2,4-bis(fluoranyl)phenyl]piperazin-1-yl]ethyl]-2-(furan-2-yl)-[1,2,4]triazolo[1,5-a][1,3,5]triazine-5,7-diamine

>  <Synonyms>  (18) 


>  <Type>  (18) 
NON-POLYMER

>  <Formula>  (18) 
C20 H21 F2 N9 O

>  <ObservedFormula>  (18) 
C20 F2 N9 O

>  <MolecularWeight>  (18) 
441.437

>  <ModifiedDate>  (18) 
2016-06-24

>  <Parent>  (18) 


>  <OneLetterCode>  (18) 


>  <SubcomponentList>  (18) 


>  <AmbiguousFlag>  (18) 
N

>  <InsertionCode>  (18) 


>  <InstanceId>  (18) 
5IUB_6DV_A_2401

>  <ChemCompId>  (18) 
6DV

>  <PdbId>  (18) 
5IUB

>  <ResidueNumber>  (18) 
2401

>  <InChI>  (18) 
InChI=1S/C20H21F2N9O/c21-13-3-4-15(14(22)12-13)30-9-7-29(8-10-30)6-5-24-19-26-18(23)31-20(27-19)25-17(28-31)16-2-1-11-32-16/h1-4,11-12H,5-10H2,(H3,23,24,25,26,27,28)

>  <InChIKey>  (18) 
NJQVZARFMYPNOT-UHFFFAOYSA-N

>  <SMILES>  (18) 
c1cc(oc1)c2nc3nc(nc(n3n2)N)NCCN4CCN(CC4)c5ccc(cc5F)F

>  <MissingHeavyAtoms>  (18) 
0

>  <Model>  (18) 
1

>  <AltIds>  (18) 


>  <pKI>  (18) 
9.46

>  <ChemblID>  (18) 
-

>  <standardized_canonical_smiles>  (18) 
Nc1nc(NCCN2CCN(c3ccc(F)cc3F)CC2)nc2nc(-c3ccco3)nn12

$$$$
5G53_NEC_B_400
     RDKit          3D

 22 24  0  0  0  0  0  0  0  0999 V2000
  -36.2830    7.5820   34.3960 C   0  0  0  0  0  0  0  0  0  0  0  0
  -36.9440    6.7160   34.9450 O   0  0  0  0  0  0  0  0  0  0  0  0
  -36.5160    8.8830   34.5730 N   0  0  0  0  0  0  0  0  0  0  0  0
  -37.5610    9.3650   35.4580 C   0  0  0  0  0  0  0  0  0  0  0  0
  -37.5160   10.8630   35.6420 C   0  0  0  0  0  0  0  0  0  0  0  0
  -35.1280    7.2320   33.5010 C   0  0  0  0  0  0  0  0  0  0  0  0
  -33.9870    7.0620   34.3430 O   0  0  0  0  0  0  0  0  0  0  0  0
  -35.3020    5.9460   32.6900 C   0  0  0  0  0  0  0  0  0  0  0  0
  -35.5540    6.2170   31.3080 O   0  0  0  0  0  0  0  0  0  0  0  0
  -34.0080    5.1750   32.9040 C   0  0  0  0  0  0  0  0  0  0  0  0
  -33.0960    5.3040   31.8060 O   0  0  0  0  0  0  0  0  0  0  0  0
  -33.3840    5.7780   34.1630 C   0  0  0  0  0  0  0  0  0  0  0  0
  -33.6090    4.8890   35.3420 N   0  0  0  0  0  0  0  0  0  0  0  0
  -34.4730    5.0670   36.3680 C   0  0  0  0  0  0  0  0  0  0  0  0
  -34.3950    4.0380   37.2480 N   0  0  0  0  0  0  0  0  0  0  0  0
  -33.4720    3.1830   36.7870 C   0  0  0  0  0  0  0  0  0  0  0  0
  -32.8930    1.8970   37.2230 C   0  0  0  0  0  0  0  0  0  0  0  0
  -33.3170    1.3190   38.3700 N   0  0  0  0  0  0  0  0  0  0  0  0
  -31.9360    1.3270   36.4490 N   0  0  0  0  0  0  0  0  0  0  0  0
  -31.5080    1.8990   35.3050 C   0  0  0  0  0  0  0  0  0  0  0  0
  -31.9940    3.0730   34.8520 N   0  0  0  0  0  0  0  0  0  0  0  0
  -32.9520    3.7470   35.5370 C   0  0  0  0  0  0  0  0  0  0  0  0
  2  1  2  0
  3  1  1  0
  6  1  1  0
  4  3  1  0
  5  4  1  0
  7  6  1  0
  8  6  1  0
 12  7  1  0
  9  8  1  0
 10  8  1  0
 11 10  1  0
 12 10  1  0
 13 12  1  0
 14 13  1  0
 22 13  1  0
 15 14  2  0
 16 15  1  0
 17 16  1  0
 22 16  2  0
 18 17  1  0
 19 17  2  0
 20 19  1  0
 21 20  2  0
 22 21  1  0
A    1
C5'
A    2
O5'
A    3
N5'
A    4
C51
A    5
C52
A    6
C4'
A    7
O4'
A    8
C3'
A    9
O3'
A   10
C2'
A   11
O2'
A   12
C1'
A   13
N9
A   14
C8
A   15
N7
A   16
C5
A   17
C6
A   18
N6
A   19
N1
A   20
C2
A   21
N3
A   22
C4
M  END
>  <Id>  (19) 
5G53_NEC_B_400

>  <ChainId>  (19) 
B

>  <AsymId>  (19) 
H

>  <SeqNum>  (19) 
400

>  <Name>  (19) 
N-ETHYL-5'-CARBOXAMIDO ADENOSINE

>  <SystematicName>  (19) 
(2S,3S,4R,5R)-5-(6-aminopurin-9-yl)-N-ethyl-3,4-dihydroxy-oxolane-2-carboxamide

>  <Synonyms>  (19) 


>  <Type>  (19) 
NON-POLYMER

>  <Formula>  (19) 
C12 H16 N6 O4

>  <ObservedFormula>  (19) 
C12 N6 O4

>  <MolecularWeight>  (19) 
308.293

>  <ModifiedDate>  (19) 
2011-06-04

>  <Parent>  (19) 


>  <OneLetterCode>  (19) 


>  <SubcomponentList>  (19) 


>  <AmbiguousFlag>  (19) 
N

>  <InsertionCode>  (19) 


>  <InstanceId>  (19) 
5G53_NEC_B_400

>  <ChemCompId>  (19) 
NEC

>  <PdbId>  (19) 
5G53

>  <ResidueNumber>  (19) 
400

>  <InChI>  (19) 
InChI=1S/C12H16N6O4/c1-2-14-11(21)8-6(19)7(20)12(22-8)18-4-17-5-9(13)15-3-16-10(5)18/h3-4,6-8,12,19-20H,2H2,1H3,(H,14,21)(H2,13,15,16)/t6-,7+,8-,12+/m0/s1

>  <InChIKey>  (19) 
JADDQZYHOWSFJD-FLNNQWSLSA-N

>  <SMILES>  (19) 
CCNC(=O)[C@@H]1[C@H]([C@H]([C@@H](O1)n2cnc3c2ncnc3N)O)O

>  <MissingHeavyAtoms>  (19) 
0

>  <Model>  (19) 
1

>  <AltIds>  (19) 


>  <pKI>  (19) 
7.82

>  <ChemblID>  (19) 
-

>  <standardized_canonical_smiles>  (19) 
CCNC(=O)[C@H]1O[C@@H](n2cnc3c(N)ncnc32)[C@H](O)[C@@H]1O

$$$$
2YDV_NEC_A_400
     RDKit          3D

 22 24  0  0  0  0  0  0  0  0999 V2000
   31.7450   11.0290  -14.0960 C   0  0  0  0  0  0  0  0  0  0  0  0
   31.2020   10.0370  -13.6370 O   0  0  0  0  0  0  0  0  0  0  0  0
   32.1080   12.0770  -13.3530 N   0  0  0  0  0  0  0  0  0  0  0  0
   31.6200   12.2940  -12.0020 C   0  0  0  0  0  0  0  0  0  0  0  0
   32.4570   13.3050  -11.2390 C   0  0  0  0  0  0  0  0  0  0  0  0
   32.0610   11.1150  -15.5640 C   0  0  0  0  0  0  0  0  0  0  0  0
   33.1210   10.2000  -15.8720 O   0  0  0  0  0  0  0  0  0  0  0  0
   30.8790   10.7170  -16.4470 C   0  0  0  0  0  0  0  0  0  0  0  0
   30.1380   11.8500  -16.9170 O   0  0  0  0  0  0  0  0  0  0  0  0
   31.5250    9.9700  -17.5960 C   0  0  0  0  0  0  0  0  0  0  0  0
   31.8890   10.8770  -18.6460 O   0  0  0  0  0  0  0  0  0  0  0  0
   32.7870    9.3710  -16.9910 C   0  0  0  0  0  0  0  0  0  0  0  0
   32.4700    7.9670  -16.5920 N   0  0  0  0  0  0  0  0  0  0  0  0
   32.0340    7.5420  -15.3840 C   0  0  0  0  0  0  0  0  0  0  0  0
   31.8240    6.1980  -15.3840 N   0  0  0  0  0  0  0  0  0  0  0  0
   32.1120    5.7400  -16.6100 C   0  0  0  0  0  0  0  0  0  0  0  0
   32.1150    4.4230  -17.2890 C   0  0  0  0  0  0  0  0  0  0  0  0
   31.7530    3.2890  -16.6420 N   0  0  0  0  0  0  0  0  0  0  0  0
   32.5010    4.3890  -18.5880 N   0  0  0  0  0  0  0  0  0  0  0  0
   32.8730    5.4990  -19.2510 C   0  0  0  0  0  0  0  0  0  0  0  0
   32.9020    6.7230  -18.6910 N   0  0  0  0  0  0  0  0  0  0  0  0
   32.5370    6.9070  -17.4030 C   0  0  0  0  0  0  0  0  0  0  0  0
  2  1  2  0
  3  1  1  0
  6  1  1  0
  4  3  1  0
  5  4  1  0
  7  6  1  0
  8  6  1  0
 12  7  1  0
  9  8  1  0
 10  8  1  0
 11 10  1  0
 12 10  1  0
 13 12  1  0
 14 13  1  0
 22 13  1  0
 15 14  2  0
 16 15  1  0
 17 16  1  0
 22 16  2  0
 18 17  1  0
 19 17  2  0
 20 19  1  0
 21 20  2  0
 22 21  1  0
A    1
C5'
A    2
O5'
A    3
N5'
A    4
C51
A    5
C52
A    6
C4'
A    7
O4'
A    8
C3'
A    9
O3'
A   10
C2'
A   11
O2'
A   12
C1'
A   13
N9
A   14
C8
A   15
N7
A   16
C5
A   17
C6
A   18
N6
A   19
N1
A   20
C2
A   21
N3
A   22
C4
M  END
>  <Id>  (20) 
2YDV_NEC_A_400

>  <ChainId>  (20) 
A

>  <AsymId>  (20) 
B

>  <SeqNum>  (20) 
400

>  <Name>  (20) 
N-ETHYL-5'-CARBOXAMIDO ADENOSINE

>  <SystematicName>  (20) 
(2S,3S,4R,5R)-5-(6-aminopurin-9-yl)-N-ethyl-3,4-dihydroxy-oxolane-2-carboxamide

>  <Synonyms>  (20) 


>  <Type>  (20) 
NON-POLYMER

>  <Formula>  (20) 
C12 H16 N6 O4

>  <ObservedFormula>  (20) 
C12 N6 O4

>  <MolecularWeight>  (20) 
308.293

>  <ModifiedDate>  (20) 
2011-06-04

>  <Parent>  (20) 


>  <OneLetterCode>  (20) 


>  <SubcomponentList>  (20) 


>  <AmbiguousFlag>  (20) 
N

>  <InsertionCode>  (20) 


>  <InstanceId>  (20) 
2YDV_NEC_A_400

>  <ChemCompId>  (20) 
NEC

>  <PdbId>  (20) 
2YDV

>  <ResidueNumber>  (20) 
400

>  <InChI>  (20) 
InChI=1S/C12H16N6O4/c1-2-14-11(21)8-6(19)7(20)12(22-8)18-4-17-5-9(13)15-3-16-10(5)18/h3-4,6-8,12,19-20H,2H2,1H3,(H,14,21)(H2,13,15,16)/t6-,7+,8-,12+/m0/s1

>  <InChIKey>  (20) 
JADDQZYHOWSFJD-FLNNQWSLSA-N

>  <SMILES>  (20) 
CCNC(=O)[C@@H]1[C@H]([C@H]([C@@H](O1)n2cnc3c2ncnc3N)O)O

>  <MissingHeavyAtoms>  (20) 
0

>  <Model>  (20) 
1

>  <AltIds>  (20) 


>  <pKI>  (20) 
7.82

>  <ChemblID>  (20) 
-

>  <standardized_canonical_smiles>  (20) 
CCNC(=O)[C@H]1O[C@@H](n2cnc3c(N)ncnc32)[C@H](O)[C@@H]1O

$$$$
