3UI7_C1L_B_1
     RDKit          3D

 24 27  0  0  0  0  0  0  0  0999 V2000
    8.6190   37.9230   57.8780 C   0  0  0  0  0  0  0  0  0  0  0  0
    6.6960   37.1150   56.6780 C   0  0  0  0  0  0  0  0  0  0  0  0
    8.0350   37.6270   59.1210 C   0  0  0  0  0  0  0  0  0  0  0  0
    8.1120   37.4870   61.5690 C   0  0  0  0  0  0  0  0  0  0  0  0
    6.0730   36.7610   57.9160 C   0  0  0  0  0  0  0  0  0  0  0  0
    8.7360   37.8910   60.3510 C   0  0  0  0  0  0  0  0  0  0  0  0
    6.7380   37.0240   59.1560 C   0  0  0  0  0  0  0  0  0  0  0  0
    7.9710   37.6920   56.6600 C   0  0  0  0  0  0  0  0  0  0  0  0
    8.3360   37.4810   62.9800 C   0  0  0  0  0  0  0  0  0  0  0  0
    6.8330   36.9150   61.4640 C   0  0  0  0  0  0  0  0  0  0  0  0
    9.0570   40.8410   60.6490 C   0  0  0  0  0  0  0  0  0  0  0  0
   11.2420   40.6170   59.5090 C   0  0  0  0  0  0  0  0  0  0  0  0
    8.6710   42.0900   59.8230 C   0  0  0  0  0  0  0  0  0  0  0  0
   10.9210   41.9190   58.7410 C   0  0  0  0  0  0  0  0  0  0  0  0
    4.6990   36.1410   57.8850 C   0  0  0  0  0  0  0  0  0  0  0  0
    9.4820   38.0010   63.7630 C   0  0  0  0  0  0  0  0  0  0  0  0
    9.8530   38.4190   55.4080 C   0  0  0  0  0  0  0  0  0  0  0  0
   10.0960   38.5640   60.2600 C   0  0  0  0  0  0  0  0  0  0  0  0
    6.1550   36.6280   60.3260 N   0  0  0  0  0  0  0  0  0  0  0  0
    6.3930   36.6490   62.7340 N   0  0  0  0  0  0  0  0  0  0  0  0
    7.2630   37.0110   63.6580 N   0  0  0  0  0  0  0  0  0  0  0  0
    9.9720   39.9930   59.8550 N   0  0  0  0  0  0  0  0  0  0  0  0
    9.8410   42.7560   59.3200 O   0  0  0  0  0  0  0  0  0  0  0  0
    8.4800   38.0220   55.4370 O   0  0  0  0  0  0  0  0  0  0  0  0
  3  1  2  0
  8  1  1  0
  5  2  1  0
  8  2  2  0
  6  3  1  0
  7  3  1  0
  6  4  2  0
  9  4  1  0
 10  4  1  0
  7  5  2  0
 15  5  1  0
 18  6  1  0
 19  7  1  0
 24  8  1  0
 16  9  1  0
 21  9  2  0
 19 10  2  0
 20 10  1  0
 13 11  1  0
 22 11  1  0
 14 12  1  0
 22 12  1  0
 23 13  1  0
 23 14  1  0
 24 17  1  0
 22 18  1  0
 21 20  1  0
A    1
C5
A    2
C14
A    3
C2
A    4
C3
A    5
C9
A    6
C1
A    7
C4
A    8
C10
A    9
C7
A   10
C6
A   11
C20
A   12
C24
A   13
C21
A   14
C23
A   15
C17
A   16
C13
A   17
C16
A   18
C18
A   19
N8
A   20
N11
A   21
N12
A   22
N19
A   23
O22
A   24
O15
M  END
>  <Id>  (1) 
3UI7_C1L_B_1

>  <ChainId>  (1) 
B

>  <AsymId>  (1) 
F

>  <SeqNum>  (1) 
1

>  <Name>  (1) 
6-methoxy-3,8-dimethyl-4-(morpholin-4-ylmethyl)-1H-pyrazolo[3,4-b]quinoline

>  <SystematicName>  (1) 
4-[(6-methoxy-3,8-dimethyl-1H-pyrazolo[3,4-b]quinolin-4-yl)methyl]morpholine

>  <Synonyms>  (1) 


>  <Type>  (1) 
NON-POLYMER

>  <Formula>  (1) 
C18 H22 N4 O2

>  <ObservedFormula>  (1) 
C18 N4 O2

>  <MolecularWeight>  (1) 
326.393

>  <ModifiedDate>  (1) 
2011-12-16

>  <Parent>  (1) 


>  <OneLetterCode>  (1) 


>  <SubcomponentList>  (1) 


>  <AmbiguousFlag>  (1) 
N

>  <InsertionCode>  (1) 


>  <InstanceId>  (1) 
3UI7_C1L_B_1

>  <ChemCompId>  (1) 
C1L

>  <PdbId>  (1) 
3UI7

>  <ResidueNumber>  (1) 
1

>  <InChI>  (1) 
InChI=1S/C18H22N4O2/c1-11-8-13(23-3)9-14-15(10-22-4-6-24-7-5-22)16-12(2)20-21-18(16)19-17(11)14/h8-9H,4-7,10H2,1-3H3,(H,19,20,21)

>  <InChIKey>  (1) 
UBGXXNXAPLUDQK-UHFFFAOYSA-N

>  <SMILES>  (1) 
Cc1cc(cc2c1nc3c(c2CN4CCOCC4)c(n[nH]3)C)OC

>  <MissingHeavyAtoms>  (1) 
0

>  <Model>  (1) 
1

>  <AltIds>  (1) 


>  <pKI>  (1) 
9.0

>  <ChemblID>  (1) 
CHEMBL1939914

>  <standardized_canonical_smiles>  (1) 
COc1cc(C)c2nc3n[nH]c(C)c3c(CN3CCOCC3)c2c1

$$$$
3UUO_0CV_B_1
     RDKit          3D

 23 26  0  0  0  0  0  0  0  0999 V2000
    9.0580   38.1540   58.0870 C   0  0  0  0  0  0  0  0  0  0  0  0
    7.3710   36.7360   57.1140 C   0  0  0  0  0  0  0  0  0  0  0  0
    8.5810   37.9660   59.4000 C   0  0  0  0  0  0  0  0  0  0  0  0
    8.6720   38.3090   61.7750 C   0  0  0  0  0  0  0  0  0  0  0  0
    6.8080   36.4910   58.3920 C   0  0  0  0  0  0  0  0  0  0  0  0
    7.4440   37.0830   59.5410 C   0  0  0  0  0  0  0  0  0  0  0  0
    9.2310   38.5840   60.5450 C   0  0  0  0  0  0  0  0  0  0  0  0
    8.4690   37.6060   56.9670 C   0  0  0  0  0  0  0  0  0  0  0  0
    8.8690   38.6160   63.0980 C   0  0  0  0  0  0  0  0  0  0  0  0
    7.5420   37.3710   61.8630 C   0  0  0  0  0  0  0  0  0  0  0  0
    9.8970   40.8000   59.7870 C   0  0  0  0  0  0  0  0  0  0  0  0
   11.5910   39.0640   60.3910 C   0  0  0  0  0  0  0  0  0  0  0  0
   10.8790   41.8680   60.0720 C   0  0  0  0  0  0  0  0  0  0  0  0
   12.5610   40.1620   60.7010 C   0  0  0  0  0  0  0  0  0  0  0  0
    5.5710   35.6340   58.4930 C   0  0  0  0  0  0  0  0  0  0  0  0
    9.9270   39.4570   63.7410 C   0  0  0  0  0  0  0  0  0  0  0  0
   10.2290   38.2410   55.4340 C   0  0  0  0  0  0  0  0  0  0  0  0
    8.0630   37.9670   63.8960 N   0  0  0  0  0  0  0  0  0  0  0  0
    7.1530   37.2510   63.1360 N   0  0  0  0  0  0  0  0  0  0  0  0
    6.9830   36.8560   60.7850 N   0  0  0  0  0  0  0  0  0  0  0  0
   10.2650   39.5220   60.4450 N   0  0  0  0  0  0  0  0  0  0  0  0
   12.2550   41.3080   59.8250 N   0  0  0  0  0  0  0  0  0  0  0  0
    8.9420   37.7270   55.7010 O   0  0  0  0  0  0  0  0  0  0  0  0
  3  1  2  0
  8  1  1  0
  5  2  1  0
  8  2  2  0
  6  3  1  0
  7  3  1  0
  7  4  2  0
  9  4  1  0
 10  4  1  0
  6  5  2  0
 15  5  1  0
 20  6  1  0
 21  7  1  0
 23  8  1  0
 16  9  1  0
 18  9  2  0
 19 10  1  0
 20 10  2  0
 13 11  1  0
 21 11  1  0
 14 12  1  0
 21 12  1  0
 22 13  1  0
 22 14  1  0
 23 17  1  0
 19 18  1  0
A    1
C11
A    2
C20
A    3
C8
A    4
C9
A    5
C15
A    6
C10
A    7
C7
A    8
C16
A    9
C13
A   10
C12
A   11
C2
A   12
C6
A   13
C3
A   14
C5
A   15
C23
A   16
C19
A   17
C22
A   18
N18
A   19
N17
A   20
N14
A   21
N1
A   22
N4
A   23
O21
M  END
>  <Id>  (2) 
3UUO_0CV_B_1

>  <ChainId>  (2) 
B

>  <AsymId>  (2) 
G

>  <SeqNum>  (2) 
1

>  <Name>  (2) 
6-methoxy-3,8-dimethyl-4-(piperazin-1-yl)-1H-pyrazolo[3,4-b]quinoline

>  <SystematicName>  (2) 
6-methoxy-3,8-dimethyl-4-piperazin-1-yl-1H-pyrazolo[3,4-b]quinoline

>  <Synonyms>  (2) 


>  <Type>  (2) 
NON-POLYMER

>  <Formula>  (2) 
C17 H21 N5 O

>  <ObservedFormula>  (2) 
C17 N5 O

>  <MolecularWeight>  (2) 
311.382

>  <ModifiedDate>  (2) 
2012-01-20

>  <Parent>  (2) 


>  <OneLetterCode>  (2) 


>  <SubcomponentList>  (2) 


>  <AmbiguousFlag>  (2) 
N

>  <InsertionCode>  (2) 


>  <InstanceId>  (2) 
3UUO_0CV_B_1

>  <ChemCompId>  (2) 
0CV

>  <PdbId>  (2) 
3UUO

>  <ResidueNumber>  (2) 
1

>  <InChI>  (2) 
InChI=1S/C17H21N5O/c1-10-8-12(23-3)9-13-15(10)19-17-14(11(2)20-21-17)16(13)22-6-4-18-5-7-22/h8-9,18H,4-7H2,1-3H3,(H,19,20,21)

>  <InChIKey>  (2) 
LRBQTFPUUPFJQW-UHFFFAOYSA-N

>  <SMILES>  (2) 
Cc1cc(cc2c1nc3c(c2N4CCNCC4)c(n[nH]3)C)OC

>  <MissingHeavyAtoms>  (2) 
0

>  <Model>  (2) 
1

>  <AltIds>  (2) 


>  <pKI>  (2) 
7.96

>  <ChemblID>  (2) 
CHEMBL1939782

>  <standardized_canonical_smiles>  (2) 
COc1cc(C)c2nc3n[nH]c(C)c3c(N3CCNCC3)c2c1

$$$$
4DFF_0JP_B_801
     RDKit          3D

 22 25  0  0  0  0  0  0  0  0999 V2000
    7.6610   38.3340   56.9970 C   0  0  0  0  0  0  0  0  0  0  0  0
    8.5750   38.4720   59.6520 C   0  0  0  0  0  0  0  0  0  0  0  0
    9.0860   37.6610   53.9350 C   0  0  0  0  0  0  0  0  0  0  0  0
   10.9440   41.4910   55.7050 C   0  0  0  0  0  0  0  0  0  0  0  0
    8.8250   37.8760   51.7520 C   0  0  0  0  0  0  0  0  0  0  0  0
    8.8130   39.0780   57.3080 C   0  0  0  0  0  0  0  0  0  0  0  0
    9.2650   39.1380   58.6570 C   0  0  0  0  0  0  0  0  0  0  0  0
    6.9280   37.6800   57.9970 C   0  0  0  0  0  0  0  0  0  0  0  0
    7.3870   37.7360   59.3260 C   0  0  0  0  0  0  0  0  0  0  0  0
    9.8200   39.8730   54.9180 C   0  0  0  0  0  0  0  0  0  0  0  0
    9.5700   39.8290   56.2970 C   0  0  0  0  0  0  0  0  0  0  0  0
    9.4020   38.9920   53.8240 C   0  0  0  0  0  0  0  0  0  0  0  0
   10.4670   39.9810   59.0020 C   0  0  0  0  0  0  0  0  0  0  0  0
   10.3410   41.2740   58.1860 C   0  0  0  0  0  0  0  0  0  0  0  0
    5.1430   36.7830   56.5400 C   0  0  0  0  0  0  0  0  0  0  0  0
    6.7640   36.9990   61.5960 C   0  0  0  0  0  0  0  0  0  0  0  0
    8.7410   36.9940   52.7650 N   0  0  0  0  0  0  0  0  0  0  0  0
   10.6920   40.8910   54.5900 N   0  0  0  0  0  0  0  0  0  0  0  0
   10.3050   40.8940   56.7580 N   0  0  0  0  0  0  0  0  0  0  0  0
    5.7960   36.8900   57.8120 O   0  0  0  0  0  0  0  0  0  0  0  0
    6.6220   36.9730   60.1660 O   0  0  0  0  0  0  0  0  0  0  0  0
    9.3290   39.4860   52.1660 S   0  0  0  0  0  0  0  0  0  0  0  0
  6  1  2  0
  8  1  1  0
  7  2  2  0
  9  2  1  0
 12  3  2  0
 17  3  1  0
 18  4  2  0
 19  4  1  0
 17  5  2  0
 22  5  1  0
  7  6  1  0
 11  6  1  0
 13  7  1  0
  9  8  2  0
 20  8  1  0
 21  9  1  0
 11 10  2  0
 12 10  1  0
 18 10  1  0
 19 11  1  0
 22 12  1  0
 14 13  1  0
 19 14  1  0
 20 15  1  0
 21 16  1  0
A    1
C17
A    2
C2
A    3
C11
A    4
C7
A    5
C13
A    6
C16
A    7
C3
A    8
C18
A    9
C1
A   10
C9
A   11
C15
A   12
C10
A   13
C4
A   14
C5
A   15
C22
A   16
C21
A   17
N12
A   18
N8
A   19
N6
A   20
O19
A   21
O20
A   22
S14
M  END
>  <Id>  (3) 
4DFF_0JP_B_801

>  <ChainId>  (3) 
B

>  <AsymId>  (3) 
E

>  <SeqNum>  (3) 
801

>  <Name>  (3) 
8,9-dimethoxy-1-(1,3-thiazol-5-yl)-5,6-dihydroimidazo[5,1-a]isoquinoline

>  <SystematicName>  (3) 
5-(8,9-dimethoxy-5,6-dihydroimidazo[5,1-a]isoquinolin-1-yl)-1,3-thiazole

>  <Synonyms>  (3) 


>  <Type>  (3) 
NON-POLYMER

>  <Formula>  (3) 
C16 H15 N3 O2 S

>  <ObservedFormula>  (3) 
C16 S N3 O2

>  <MolecularWeight>  (3) 
313.374

>  <ModifiedDate>  (3) 
2012-03-09

>  <Parent>  (3) 


>  <OneLetterCode>  (3) 


>  <SubcomponentList>  (3) 


>  <AmbiguousFlag>  (3) 
N

>  <InsertionCode>  (3) 


>  <InstanceId>  (3) 
4DFF_0JP_B_801

>  <ChemCompId>  (3) 
0JP

>  <PdbId>  (3) 
4DFF

>  <ResidueNumber>  (3) 
801

>  <InChI>  (3) 
InChI=1S/C16H15N3O2S/c1-20-12-5-10-3-4-19-8-18-15(14-7-17-9-22-14)16(19)11(10)6-13(12)21-2/h5-9H,3-4H2,1-2H3

>  <InChIKey>  (3) 
GFIAXSKRRKHJBD-UHFFFAOYSA-N

>  <SMILES>  (3) 
COc1cc2c(cc1OC)-c3c(ncn3CC2)c4cncs4

>  <MissingHeavyAtoms>  (3) 
0

>  <Model>  (3) 
1

>  <AltIds>  (3) 


>  <pKI>  (3) 
7.46

>  <ChemblID>  (3) 
CHEMBL2017087

>  <standardized_canonical_smiles>  (3) 
COc1cc2c(cc1OC)-c1c(-c3cncs3)ncn1CC2

$$$$
4XY2_490_A_803
     RDKit          3D

 32 36  0  0  0  0  0  0  0  0999 V2000
   15.2960    1.9310   62.2860 C   0  0  0  0  0  0  0  0  0  0  0  0
   15.7030    2.2380   64.7150 C   0  0  0  0  0  0  0  0  0  0  0  0
   15.4510    2.1800   59.8260 C   0  0  0  0  0  0  0  0  0  0  0  0
   14.4350    1.7330   57.2550 C   0  0  0  0  0  0  0  0  0  0  0  0
   20.3310    2.9980   58.5470 C   0  0  0  0  0  0  0  0  0  0  0  0
   21.0820    3.5140   57.5000 C   0  0  0  0  0  0  0  0  0  0  0  0
   19.4920    5.2000   58.9650 C   0  0  0  0  0  0  0  0  0  0  0  0
   21.9050    5.3440   55.9950 C   0  0  0  0  0  0  0  0  0  0  0  0
   22.1730    6.5220   53.8830 C   0  0  0  0  0  0  0  0  0  0  0  0
   24.0300    5.4720   54.8200 C   0  0  0  0  0  0  0  0  0  0  0  0
   21.3990    6.0950   54.9580 C   0  0  0  0  0  0  0  0  0  0  0  0
   20.2620    5.6890   57.9060 C   0  0  0  0  0  0  0  0  0  0  0  0
   23.5220    6.2130   53.7700 C   0  0  0  0  0  0  0  0  0  0  0  0
   25.2680    4.2770   56.2400 C   0  0  0  0  0  0  0  0  0  0  0  0
   21.0810    4.8590   57.1390 C   0  0  0  0  0  0  0  0  0  0  0  0
   15.8570    2.4630   61.1640 C   0  0  0  0  0  0  0  0  0  0  0  0
   23.2620    5.0480   55.8950 C   0  0  0  0  0  0  0  0  0  0  0  0
   19.5160    3.8520   59.2770 C   0  0  0  0  0  0  0  0  0  0  0  0
   16.8560    3.3650   61.6360 C   0  0  0  0  0  0  0  0  0  0  0  0
   14.0940    1.7710   59.6000 C   0  0  0  0  0  0  0  0  0  0  0  0
   13.5360    1.5530   58.4130 C   0  0  0  0  0  0  0  0  0  0  0  0
   16.2430    2.3430   58.7630 C   0  0  0  0  0  0  0  0  0  0  0  0
   26.4820    5.1470   54.2340 C   0  0  0  0  0  0  0  0  0  0  0  0
   16.6500    2.3190   56.4030 C   0  0  0  0  0  0  0  0  0  0  0  0
   17.7470    4.1890   60.8000 C   0  0  0  0  0  0  0  0  0  0  0  0
   24.0590    4.3320   56.7570 N   0  0  0  0  0  0  0  0  0  0  0  0
   16.9400    3.3900   62.9730 N   0  0  0  0  0  0  0  0  0  0  0  0
   15.9780    2.5110   63.3160 N   0  0  0  0  0  0  0  0  0  0  0  0
   25.2890    4.9620   55.0610 N   0  0  0  0  0  0  0  0  0  0  0  0
   15.7640    2.1050   57.5040 N   0  0  0  0  0  0  0  0  0  0  0  0
   13.9560    1.5360   56.1640 O   0  0  0  0  0  0  0  0  0  0  0  0
   18.7620    3.2900   60.3230 O   0  0  0  0  0  0  0  0  0  0  0  0
 16  1  2  0
 28  1  1  0
 28  2  1  0
 16  3  1  0
 20  3  1  0
 22  3  2  0
 21  4  1  0
 30  4  1  0
 31  4  2  0
  6  5  2  0
 18  5  1  0
 15  6  1  0
 12  7  1  0
 18  7  2  0
 11  8  1  0
 15  8  1  0
 17  8  2  0
 11  9  2  0
 13  9  1  0
 13 10  2  0
 17 10  1  0
 29 10  1  0
 15 12  2  0
 26 14  2  0
 29 14  1  0
 19 16  1  0
 26 17  1  0
 32 18  1  0
 25 19  1  0
 27 19  2  0
 21 20  2  0
 30 22  1  0
 29 23  1  0
 30 24  1  0
 32 25  1  0
 28 27  1  0
A    1
C4
A    2
C7
A    3
C8
A    4
C10
A    5
C17
A    6
C20
A    7
C21
A    8
C22
A    9
C24
A   10
C26
A   11
C25
A   12
C19
A   13
C23
A   14
C29
A   15
C18
A   16
C3
A   17
C27
A   18
C16
A   19
C2
A   20
C12
A   21
C11
A   22
C9
A   23
C31
A   24
C14
A   25
C1
A   26
N28
A   27
N6
A   28
N5
A   29
N30
A   30
N13
A   31
O32
A   32
O15
M  END
>  <Id>  (4) 
4XY2_490_A_803

>  <ChainId>  (4) 
A

>  <AsymId>  (4) 
E

>  <SeqNum>  (4) 
803

>  <Name>  (4) 
1-methyl-5-(1-methyl-3-{[4-(1-methyl-1H-benzimidazol-4-yl)phenoxy]methyl}-1H-pyrazol-4-yl)pyridin-2(1H)-one

>  <SystematicName>  (4) 
1-methyl-5-[1-methyl-3-[[4-(1-methylbenzimidazol-4-yl)phenoxy]methyl]pyrazol-4-yl]pyridin-2-one

>  <Synonyms>  (4) 


>  <Type>  (4) 
NON-POLYMER

>  <Formula>  (4) 
C25 H23 N5 O2

>  <ObservedFormula>  (4) 
C25 N5 O2

>  <MolecularWeight>  (4) 
425.482

>  <ModifiedDate>  (4) 
2015-06-12

>  <Parent>  (4) 


>  <OneLetterCode>  (4) 


>  <SubcomponentList>  (4) 


>  <AmbiguousFlag>  (4) 
N

>  <InsertionCode>  (4) 


>  <InstanceId>  (4) 
4XY2_490_A_803

>  <ChemCompId>  (4) 
490

>  <PdbId>  (4) 
4XY2

>  <ResidueNumber>  (4) 
803

>  <InChI>  (4) 
InChI=1S/C25H23N5O2/c1-28-13-18(9-12-24(28)31)21-14-30(3)27-22(21)15-32-19-10-7-17(8-11-19)20-5-4-6-23-25(20)26-16-29(23)2/h4-14,16H,15H2,1-3H3

>  <InChIKey>  (4) 
NFDOFMKFLYRKFC-UHFFFAOYSA-N

>  <SMILES>  (4) 
Cn1cc(c(n1)COc2ccc(cc2)c3cccc4c3ncn4C)C5=CN(C(=O)C=C5)C

>  <MissingHeavyAtoms>  (4) 
0

>  <Model>  (4) 
1

>  <AltIds>  (4) 


>  <pKI>  (4) 
6.06

>  <ChemblID>  (4) 
CHEMBL3621548

>  <standardized_canonical_smiles>  (4) 
CCCNc1nc(C2CC2)nc(Cl)c1C

$$$$
5C29_4XY_A_803
     RDKit          3D

 15 16  0  0  0  0  0  0  0  0999 V2000
    4.8620   12.5830   43.4110 C   0  0  0  0  0  0  0  0  0  0  0  0
    4.5790   14.4130   40.1590 C   0  0  0  0  0  0  0  0  0  0  0  0
    4.9200   15.8480   39.7370 C   0  0  0  0  0  0  0  0  0  0  0  0
    8.5560   10.5320   42.1220 C   0  0  0  0  0  0  0  0  0  0  0  0
    7.5880   11.1960   43.1000 C   0  0  0  0  0  0  0  0  0  0  0  0
    6.2090   10.5290   43.0670 C   0  0  0  0  0  0  0  0  0  0  0  0
    3.6910   14.5570   43.7410 C   0  0  0  0  0  0  0  0  0  0  0  0
    3.7470   14.9190   42.4540 N   0  0  0  0  0  0  0  0  0  0  0  0
    4.4260   14.0960   41.6270 C   0  0  0  0  0  0  0  0  0  0  0  0
    4.9680   12.9440   42.0950 N   0  0  0  0  0  0  0  0  0  0  0  0
    4.1960   13.4030   44.3420 C   0  0  0  0  0  0  0  0  0  0  0  0
    3.5350   15.2710   39.4330 C   0  0  0  0  0  0  0  0  0  0  0  0
    4.0380   13.0760   45.8210 C   0  0  0  0  0  0  0  0  0  0  0  0
    2.8110   15.7030   44.6720 Cl  0  0  0  0  0  0  0  0  0  0  0  0
    5.4140   11.4470   43.8980 N   0  0  0  0  0  0  0  0  0  0  0  0
 10  1  2  0
 11  1  1  0
 15  1  1  0
  3  2  1  0
  9  2  1  0
 12  2  1  0
 12  3  1  0
  5  4  1  0
  6  5  1  0
 15  6  1  0
  8  7  1  0
 11  7  2  0
 14  7  1  0
  9  8  2  0
 10  9  1  0
 13 11  1  0
A    1
C3
A    2
C5
A    3
C7
A    4
C9
A    5
C10
A    6
C11
A    7
C
A    8
N
A    9
C1
A   10
N2
A   11
C4
A   12
C6
A   13
C8
A   14
CL
A   15
N12
M  END
>  <Id>  (5) 
5C29_4XY_A_803

>  <ChainId>  (5) 
A

>  <AsymId>  (5) 
E

>  <SeqNum>  (5) 
803

>  <Name>  (5) 
6-chloro-2-cyclopropyl-5-methyl-N-propylpyrimidin-4-amine

>  <SystematicName>  (5) 
6-chloranyl-2-cyclopropyl-5-methyl-N-propyl-pyrimidin-4-amine

>  <Synonyms>  (5) 


>  <Type>  (5) 
NON-POLYMER

>  <Formula>  (5) 
C11 H16 Cl N3

>  <ObservedFormula>  (5) 
C11 Cl N3

>  <MolecularWeight>  (5) 
225.718

>  <ModifiedDate>  (5) 
2015-09-25

>  <Parent>  (5) 


>  <OneLetterCode>  (5) 


>  <SubcomponentList>  (5) 


>  <AmbiguousFlag>  (5) 
N

>  <InsertionCode>  (5) 


>  <InstanceId>  (5) 
5C29_4XY_A_803

>  <ChemCompId>  (5) 
4XY

>  <PdbId>  (5) 
5C29

>  <ResidueNumber>  (5) 
803

>  <InChI>  (5) 
InChI=1S/C11H16ClN3/c1-3-6-13-10-7(2)9(12)14-11(15-10)8-4-5-8/h8H,3-6H2,1-2H3,(H,13,14,15)

>  <InChIKey>  (5) 
YWNJZQBPACVEDC-UHFFFAOYSA-N

>  <SMILES>  (5) 
CCCNc1c(c(nc(n1)C2CC2)Cl)C

>  <MissingHeavyAtoms>  (5) 
0

>  <Model>  (5) 
1

>  <AltIds>  (5) 


>  <pKI>  (5) 
6.06

>  <ChemblID>  (5) 
CHEMBL3621548

>  <standardized_canonical_smiles>  (5) 
CCCNc1nc(C2CC2)nc(Cl)c1C

$$$$
5C2A_4Y2_B_803
     RDKit          3D

 20 22  0  0  0  0  0  0  0  0999 V2000
   -8.5850   -2.4060   18.4320 C   0  0  0  0  0  0  0  0  0  0  0  0
   -8.8330   -2.8310   15.9340 C   0  0  0  0  0  0  0  0  0  0  0  0
   -5.1240   -4.6680   21.0100 C   0  0  0  0  0  0  0  0  0  0  0  0
   -7.7530    2.1770   20.1240 C   0  0  0  0  0  0  0  0  0  0  0  0
   -9.5780    1.2130   20.9350 C   0  0  0  0  0  0  0  0  0  0  0  0
   -9.3410    0.3380   19.8990 C   0  0  0  0  0  0  0  0  0  0  0  0
   -6.6470    3.1440   19.9630 C   0  0  0  0  0  0  0  0  0  0  0  0
  -10.1110   -0.8900   19.5420 C   0  0  0  0  0  0  0  0  0  0  0  0
   -6.9440   -3.6560   17.3490 C   0  0  0  0  0  0  0  0  0  0  0  0
   -6.2550   -3.8140   18.4750 N   0  0  0  0  0  0  0  0  0  0  0  0
   -7.9240    0.8410   19.0540 S   0  0  0  0  0  0  0  0  0  0  0  0
   -6.7630   -3.2560   19.5760 C   0  0  0  0  0  0  0  0  0  0  0  0
   -7.9030   -2.5470   19.5860 N   0  0  0  0  0  0  0  0  0  0  0  0
   -8.1290   -2.9670   17.2520 C   0  0  0  0  0  0  0  0  0  0  0  0
   -5.9900   -3.4450   20.8260 C   0  0  0  0  0  0  0  0  0  0  0  0
   -4.4910   -3.3230   20.8140 C   0  0  0  0  0  0  0  0  0  0  0  0
   -6.1760   -4.4080   16.0030 Cl  0  0  0  0  0  0  0  0  0  0  0  0
   -8.6840    2.2560   21.0490 N   0  0  0  0  0  0  0  0  0  0  0  0
  -10.6830    1.1360   21.9120 C   0  0  0  0  0  0  0  0  0  0  0  0
   -9.7820   -1.6720   18.3590 N   0  0  0  0  0  0  0  0  0  0  0  0
 13  1  1  0
 14  1  2  0
 20  1  1  0
 14  2  1  0
 15  3  1  0
 16  3  1  0
  7  4  1  0
 11  4  1  0
 18  4  2  0
  6  5  2  0
 18  5  1  0
 19  5  1  0
  8  6  1  0
 11  6  1  0
 20  8  1  0
 10  9  2  0
 14  9  1  0
 17  9  1  0
 12 10  1  0
 13 12  2  0
 15 12  1  0
 16 15  1  0
A    1
C3
A    2
C5
A    3
C7
A    4
C9
A    5
C11
A    6
C12
A    7
C13
A    8
C15
A    9
C
A   10
N
A   11
S
A   12
C1
A   13
N2
A   14
C4
A   15
C6
A   16
C8
A   17
CL
A   18
N10
A   19
C14
A   20
N16
M  END
>  <Id>  (6) 
5C2A_4Y2_B_803

>  <ChainId>  (6) 
B

>  <AsymId>  (6) 
H

>  <SeqNum>  (6) 
803

>  <Name>  (6) 
6-chloro-2-cyclopropyl-N-[(2,4-dimethyl-1,3-thiazol-5-yl)methyl]-5-methylpyrimidin-4-amine

>  <SystematicName>  (6) 
6-chloranyl-2-cyclopropyl-N-[(2,4-dimethyl-1,3-thiazol-5-yl)methyl]-5-methyl-pyrimidin-4-amine

>  <Synonyms>  (6) 


>  <Type>  (6) 
NON-POLYMER

>  <Formula>  (6) 
C14 H17 Cl N4 S

>  <ObservedFormula>  (6) 
C14 S Cl N4

>  <MolecularWeight>  (6) 
308.83

>  <ModifiedDate>  (6) 
2015-09-25

>  <Parent>  (6) 


>  <OneLetterCode>  (6) 


>  <SubcomponentList>  (6) 


>  <AmbiguousFlag>  (6) 
N

>  <InsertionCode>  (6) 


>  <InstanceId>  (6) 
5C2A_4Y2_B_803

>  <ChemCompId>  (6) 
4Y2

>  <PdbId>  (6) 
5C2A

>  <ResidueNumber>  (6) 
803

>  <InChI>  (6) 
InChI=1S/C14H17ClN4S/c1-7-12(15)18-14(10-4-5-10)19-13(7)16-6-11-8(2)17-9(3)20-11/h10H,4-6H2,1-3H3,(H,16,18,19)

>  <InChIKey>  (6) 
BKAQDKUFAULKQY-UHFFFAOYSA-N

>  <SMILES>  (6) 
Cc1c(nc(nc1Cl)C2CC2)NCc3c(nc(s3)C)C

>  <MissingHeavyAtoms>  (6) 
0

>  <Model>  (6) 
1

>  <AltIds>  (6) 


>  <pKI>  (6) 
8.32

>  <ChemblID>  (6) 
CHEMBL3622879

>  <standardized_canonical_smiles>  (6) 
Cc1nc(C)c(CNc2nc(C3CC3)nc(Cl)c2C)s1

$$$$
5C2E_4Y1_B_803
     RDKit          3D

 26 28  0  0  0  0  0  0  0  0999 V2000
   -9.0610   -2.4360   18.3300 C   0  0  0  0  0  0  0  0  0  0  0  0
   -9.1310   -2.7960   15.8360 C   0  0  0  0  0  0  0  0  0  0  0  0
  -10.2340   -1.6610   18.1960 N   0  0  0  0  0  0  0  0  0  0  0  0
  -10.6270   -0.9470   19.4020 C   0  0  0  0  0  0  0  0  0  0  0  0
   -8.2280    2.0300   20.1150 C   0  0  0  0  0  0  0  0  0  0  0  0
  -10.0570    1.0870   20.9030 C   0  0  0  0  0  0  0  0  0  0  0  0
   -7.0950    2.9620   19.9720 C   0  0  0  0  0  0  0  0  0  0  0  0
  -11.1530    1.0220   21.8810 C   0  0  0  0  0  0  0  0  0  0  0  0
   -5.2870   -4.4560   22.3240 C   0  0  0  0  0  0  0  0  0  0  0  0
   -5.9600   -6.4270   23.5320 N   0  0  0  0  0  0  0  0  0  0  0  0
   -6.8320   -7.0600   24.3300 C   0  0  0  0  0  0  0  0  0  0  0  0
   -8.2670   -5.1890   24.4950 C   0  0  0  0  0  0  0  0  0  0  0  0
   -7.3900   -4.5080   23.6770 C   0  0  0  0  0  0  0  0  0  0  0  0
   -7.3580   -3.7220   17.3500 C   0  0  0  0  0  0  0  0  0  0  0  0
   -6.7490   -3.9290   18.5210 N   0  0  0  0  0  0  0  0  0  0  0  0
   -6.8380   -3.4760   20.8380 O   0  0  0  0  0  0  0  0  0  0  0  0
   -8.4300    0.7450   18.9980 S   0  0  0  0  0  0  0  0  0  0  0  0
   -6.5520   -4.4640   16.0200 Cl  0  0  0  0  0  0  0  0  0  0  0  0
   -7.3620   -3.3560   19.5630 C   0  0  0  0  0  0  0  0  0  0  0  0
   -8.4790   -2.6230   19.5260 N   0  0  0  0  0  0  0  0  0  0  0  0
   -8.5140   -2.9870   17.1850 C   0  0  0  0  0  0  0  0  0  0  0  0
   -9.8420    0.2380   19.8350 C   0  0  0  0  0  0  0  0  0  0  0  0
   -9.1450    2.0980   21.0530 N   0  0  0  0  0  0  0  0  0  0  0  0
   -5.7790   -4.4260   20.8930 C   0  0  0  0  0  0  0  0  0  0  0  0
   -6.2590   -5.1590   23.2170 C   0  0  0  0  0  0  0  0  0  0  0  0
   -7.9850   -6.4960   24.8330 C   0  0  0  0  0  0  0  0  0  0  0  0
  3  1  1  0
 20  1  1  0
 21  1  2  0
 21  2  1  0
  4  3  1  0
 22  4  1  0
  7  5  1  0
 17  5  1  0
 23  5  2  0
  8  6  1  0
 22  6  2  0
 23  6  1  0
 24  9  1  0
 25  9  1  0
 11 10  2  0
 25 10  1  0
 26 11  1  0
 13 12  1  0
 26 12  2  0
 25 13  2  0
 15 14  2  0
 18 14  1  0
 21 14  1  0
 19 15  1  0
 19 16  1  0
 24 16  1  0
 22 17  1  0
 20 19  2  0
A    1
C3
A    2
C5
A    3
N6
A    4
C7
A    5
C9
A    6
C11
A    7
C12
A    8
C13
A    9
C15
A   10
N17
A   11
C18
A   12
C20
A   13
C21
A   14
C
A   15
N
A   16
O
A   17
S
A   18
CL
A   19
C1
A   20
N2
A   21
C4
A   22
C8
A   23
N10
A   24
C14
A   25
C16
A   26
C19
M  END
>  <Id>  (7) 
5C2E_4Y1_B_803

>  <ChainId>  (7) 
B

>  <AsymId>  (7) 
H

>  <SeqNum>  (7) 
803

>  <Name>  (7) 
6-chloro-N-[(2,4-dimethyl-1,3-thiazol-5-yl)methyl]-5-methyl-2-[2-(pyridin-2-yl)ethoxy]pyrimidin-4-amine

>  <SystematicName>  (7) 
6-chloranyl-N-[(2,4-dimethyl-1,3-thiazol-5-yl)methyl]-5-methyl-2-(2-pyridin-2-ylethoxy)pyrimidin-4-amine

>  <Synonyms>  (7) 


>  <Type>  (7) 
NON-POLYMER

>  <Formula>  (7) 
C18 H20 Cl N5 O S

>  <ObservedFormula>  (7) 
C18 S Cl N5 O

>  <MolecularWeight>  (7) 
389.902

>  <ModifiedDate>  (7) 
2015-11-27

>  <Parent>  (7) 


>  <OneLetterCode>  (7) 


>  <SubcomponentList>  (7) 


>  <AmbiguousFlag>  (7) 
N

>  <InsertionCode>  (7) 


>  <InstanceId>  (7) 
5C2E_4Y1_B_803

>  <ChemCompId>  (7) 
4Y1

>  <PdbId>  (7) 
5C2E

>  <ResidueNumber>  (7) 
803

>  <InChI>  (7) 
InChI=1S/C18H20ClN5OS/c1-11-16(19)23-18(25-9-7-14-6-4-5-8-20-14)24-17(11)21-10-15-12(2)22-13(3)26-15/h4-6,8H,7,9-10H2,1-3H3,(H,21,23,24)

>  <InChIKey>  (7) 
SAFPHTULZQIFPO-UHFFFAOYSA-N

>  <SMILES>  (7) 
Cc1c(nc(nc1Cl)OCCc2ccccn2)NCc3c(nc(s3)C)C

>  <MissingHeavyAtoms>  (7) 
0

>  <Model>  (7) 
1

>  <AltIds>  (7) 


>  <pKI>  (7) 
8.7

>  <ChemblID>  (7) 
CHEMBL3622894

>  <standardized_canonical_smiles>  (7) 
Cc1nc(C)c(CNc2nc(OCCc3ccccn3)nc(Cl)c2C)s1

$$$$
5C1W_4XS_A_803
     RDKit          3D

 12 13  0  0  0  0  0  0  0  0999 V2000
    4.3810   12.1860   43.4710 C   0  0  0  0  0  0  0  0  0  0  0  0
    4.0840   13.7120   41.7190 C   0  0  0  0  0  0  0  0  0  0  0  0
    3.4160   14.5380   42.5510 N   0  0  0  0  0  0  0  0  0  0  0  0
    3.4380   15.0590   39.5100 C   0  0  0  0  0  0  0  0  0  0  0  0
    3.4570   12.6250   45.8760 C   0  0  0  0  0  0  0  0  0  0  0  0
    2.3900   15.2590   44.8090 Cl  0  0  0  0  0  0  0  0  0  0  0  0
    3.2610   14.1230   43.8290 C   0  0  0  0  0  0  0  0  0  0  0  0
    3.7110   12.9470   44.4260 C   0  0  0  0  0  0  0  0  0  0  0  0
    4.5530   12.5150   42.1750 N   0  0  0  0  0  0  0  0  0  0  0  0
    5.1060   10.6260   43.7360 Cl  0  0  0  0  0  0  0  0  0  0  0  0
    4.3270   14.0860   40.2810 C   0  0  0  0  0  0  0  0  0  0  0  0
    4.7750   15.5320   40.0870 C   0  0  0  0  0  0  0  0  0  0  0  0
  8  1  2  0
  9  1  1  0
 10  1  1  0
  3  2  1  0
  9  2  2  0
 11  2  1  0
  7  3  2  0
 11  4  1  0
 12  4  1  0
  8  5  1  0
  7  6  1  0
  8  7  1  0
 12 11  1  0
A    1
C2
A    2
C3
A    3
N4
A    4
C7
A    5
C9
A    6
CL
A    7
C
A    8
C1
A    9
N
A   10
CL5
A   11
C6
A   12
C8
M  END
>  <Id>  (8) 
5C1W_4XS_A_803

>  <ChainId>  (8) 
A

>  <AsymId>  (8) 
E

>  <SeqNum>  (8) 
803

>  <Name>  (8) 
4,6-dichloro-2-cyclopropyl-5-methylpyrimidine

>  <SystematicName>  (8) 
4,6-bis(chloranyl)-2-cyclopropyl-5-methyl-pyrimidine

>  <Synonyms>  (8) 


>  <Type>  (8) 
NON-POLYMER

>  <Formula>  (8) 
C8 H8 Cl2 N2

>  <ObservedFormula>  (8) 
C8 Cl2 N2

>  <MolecularWeight>  (8) 
203.069

>  <ModifiedDate>  (8) 
2015-09-25

>  <Parent>  (8) 


>  <OneLetterCode>  (8) 


>  <SubcomponentList>  (8) 


>  <AmbiguousFlag>  (8) 
N

>  <InsertionCode>  (8) 


>  <InstanceId>  (8) 
5C1W_4XS_A_803

>  <ChemCompId>  (8) 
4XS

>  <PdbId>  (8) 
5C1W

>  <ResidueNumber>  (8) 
803

>  <InChI>  (8) 
InChI=1S/C8H8Cl2N2/c1-4-6(9)11-8(5-2-3-5)12-7(4)10/h5H,2-3H2,1H3

>  <InChIKey>  (8) 
AEKXEKPMZIZYLD-UHFFFAOYSA-N

>  <SMILES>  (8) 
Cc1c(nc(nc1Cl)C2CC2)Cl

>  <MissingHeavyAtoms>  (8) 
0

>  <Model>  (8) 
1

>  <AltIds>  (8) 


>  <pKI>  (8) 
5.06

>  <ChemblID>  (8) 
CHEMBL3622905

>  <standardized_canonical_smiles>  (8) 
Cc1c(Cl)nc(C2CC2)nc1Cl

$$$$
5C28_4XV_A_803
     RDKit          3D

 12 13  0  0  0  0  0  0  0  0999 V2000
    4.3910   11.6160   43.0560 C   0  0  0  0  0  0  0  0  0  0  0  0
    3.9510   13.1040   41.3420 C   0  0  0  0  0  0  0  0  0  0  0  0
    3.2290   13.9100   42.1270 N   0  0  0  0  0  0  0  0  0  0  0  0
    4.1320   13.4590   39.9290 C   0  0  0  0  0  0  0  0  0  0  0  0
    4.4490   14.8690   39.5240 C   0  0  0  0  0  0  0  0  0  0  0  0
    3.1100   13.5230   43.3930 C   0  0  0  0  0  0  0  0  0  0  0  0
    4.5250   11.9650   41.7660 N   0  0  0  0  0  0  0  0  0  0  0  0
    3.6650   12.3890   43.9400 C   0  0  0  0  0  0  0  0  0  0  0  0
    5.0070   10.4160   43.4630 N   0  0  0  0  0  0  0  0  0  0  0  0
    3.4580   12.0800   45.3910 C   0  0  0  0  0  0  0  0  0  0  0  0
    3.0920   14.2910   39.2340 C   0  0  0  0  0  0  0  0  0  0  0  0
    2.1860   14.5780   44.3610 Cl  0  0  0  0  0  0  0  0  0  0  0  0
  7  1  2  0
  8  1  1  0
  9  1  1  0
  3  2  2  0
  4  2  1  0
  7  2  1  0
  6  3  1  0
  5  4  1  0
 11  4  1  0
 11  5  1  0
  8  6  2  0
 12  6  1  0
 10  8  1  0
A    1
C2
A    2
C3
A    3
N4
A    4
C7
A    5
C9
A    6
C
A    7
N
A    8
C1
A    9
N5
A   10
C6
A   11
C8
A   12
CL
M  END
>  <Id>  (9) 
5C28_4XV_A_803

>  <ChainId>  (9) 
A

>  <AsymId>  (9) 
E

>  <SeqNum>  (9) 
803

>  <Name>  (9) 
6-chloro-2-cyclopropyl-5-methylpyrimidin-4-amine

>  <SystematicName>  (9) 
6-chloranyl-2-cyclopropyl-5-methyl-pyrimidin-4-amine

>  <Synonyms>  (9) 


>  <Type>  (9) 
NON-POLYMER

>  <Formula>  (9) 
C8 H10 Cl N3

>  <ObservedFormula>  (9) 
C8 Cl N3

>  <MolecularWeight>  (9) 
183.638

>  <ModifiedDate>  (9) 
2015-09-25

>  <Parent>  (9) 


>  <OneLetterCode>  (9) 


>  <SubcomponentList>  (9) 


>  <AmbiguousFlag>  (9) 
N

>  <InsertionCode>  (9) 


>  <InstanceId>  (9) 
5C28_4XV_A_803

>  <ChemCompId>  (9) 
4XV

>  <PdbId>  (9) 
5C28

>  <ResidueNumber>  (9) 
803

>  <InChI>  (9) 
InChI=1S/C8H10ClN3/c1-4-6(9)11-8(5-2-3-5)12-7(4)10/h5H,2-3H2,1H3,(H2,10,11,12)

>  <InChIKey>  (9) 
YAXGQELQDGLZKV-UHFFFAOYSA-N

>  <SMILES>  (9) 
Cc1c(nc(nc1Cl)C2CC2)N

>  <MissingHeavyAtoms>  (9) 
0

>  <Model>  (9) 
1

>  <AltIds>  (9) 


>  <pKI>  (9) 
5.66

>  <ChemblID>  (9) 
CHEMBL3622906

>  <standardized_canonical_smiles>  (9) 
Cc1c(N)nc(C2CC2)nc1Cl

$$$$
4ZO5_4Q0_B_803
     RDKit          3D

 36 40  0  0  0  0  0  0  0  0999 V2000
   -0.2320   -4.6420   23.4190 C   0  0  0  0  0  0  0  0  0  0  0  0
   -1.5160   -5.0720   23.7010 C   0  0  0  0  0  0  0  0  0  0  0  0
   -0.7760   -5.8070   25.8770 C   0  0  0  0  0  0  0  0  0  0  0  0
   -5.3250   -6.5520   24.3840 C   0  0  0  0  0  0  0  0  0  0  0  0
   -4.7540   -5.0900   21.9500 C   0  0  0  0  0  0  0  0  0  0  0  0
   -5.0200   -3.5930   21.9940 C   0  0  0  0  0  0  0  0  0  0  0  0
   -6.3990   -5.8370   24.8900 C   0  0  0  0  0  0  0  0  0  0  0  0
   -7.6120   -6.4710   25.0990 C   0  0  0  0  0  0  0  0  0  0  0  0
   -6.6510   -8.5440   24.3190 C   0  0  0  0  0  0  0  0  0  0  0  0
   -9.7620   -7.8780   25.9440 C   0  0  0  0  0  0  0  0  0  0  0  0
   -6.1950   -3.1850   21.2610 N   0  0  0  0  0  0  0  0  0  0  0  0
   -7.3910   -2.8710   21.8800 C   0  0  0  0  0  0  0  0  0  0  0  0
   -8.2500   -2.4900   20.7700 C   0  0  0  0  0  0  0  0  0  0  0  0
   -7.5740   -2.6360   19.5890 C   0  0  0  0  0  0  0  0  0  0  0  0
    0.5030   -5.3720   25.5900 C   0  0  0  0  0  0  0  0  0  0  0  0
   -2.5110   -4.9010   22.7360 N   0  0  0  0  0  0  0  0  0  0  0  0
   -3.3990   -6.6120   26.3350 O   0  0  0  0  0  0  0  0  0  0  0  0
    0.7670   -4.7880   24.3670 C   0  0  0  0  0  0  0  0  0  0  0  0
   -1.7790   -5.6460   24.9350 C   0  0  0  0  0  0  0  0  0  0  0  0
   -3.7120   -5.3120   23.0040 C   0  0  0  0  0  0  0  0  0  0  0  0
   -4.0850   -5.9040   24.2110 N   0  0  0  0  0  0  0  0  0  0  0  0
   -3.1590   -6.1000   25.2400 C   0  0  0  0  0  0  0  0  0  0  0  0
   -7.7300   -7.8310   24.8250 C   0  0  0  0  0  0  0  0  0  0  0  0
   -5.4440   -7.9060   24.0940 C   0  0  0  0  0  0  0  0  0  0  0  0
   -8.9130   -8.5450   25.0160 O   0  0  0  0  0  0  0  0  0  0  0  0
   -6.2140   -3.0870   19.8780 C   0  0  0  0  0  0  0  0  0  0  0  0
   -9.5620   -2.0690   20.8170 C   0  0  0  0  0  0  0  0  0  0  0  0
  -10.1630   -1.7730   19.6020 C   0  0  0  0  0  0  0  0  0  0  0  0
   -9.4780   -1.9090   18.4110 C   0  0  0  0  0  0  0  0  0  0  0  0
   -8.1610   -2.3530   18.3720 C   0  0  0  0  0  0  0  0  0  0  0  0
   -5.3280   -3.2700   19.0440 O   0  0  0  0  0  0  0  0  0  0  0  0
   -7.7510   -2.9430   23.0560 O   0  0  0  0  0  0  0  0  0  0  0  0
   -7.4160   -2.5500   17.1940 O   0  0  0  0  0  0  0  0  0  0  0  0
   -8.0540   -2.0180   16.0060 C   0  0  0  0  0  0  0  0  0  0  0  0
   -6.9830   -1.5880   15.0300 C   0  0  0  0  0  0  0  0  0  0  0  0
   -8.9370   -3.0220   15.2880 C   0  0  0  0  0  0  0  0  0  0  0  0
  2  1  2  0
 18  1  1  0
 16  2  1  0
 19  2  1  0
 15  3  1  0
 19  3  2  0
  7  4  2  0
 21  4  1  0
 24  4  1  0
  6  5  1  0
 20  5  1  0
 11  6  1  0
  8  7  1  0
 23  8  2  0
 23  9  1  0
 24  9  2  0
 25 10  1  0
 12 11  1  0
 26 11  1  0
 13 12  1  0
 32 12  2  0
 14 13  2  0
 27 13  1  0
 26 14  1  0
 30 14  1  0
 18 15  2  0
 20 16  2  0
 22 17  2  0
 22 19  1  0
 21 20  1  0
 22 21  1  0
 25 23  1  0
 31 26  2  0
 28 27  2  0
 29 28  1  0
 30 29  2  0
 33 30  1  0
 34 33  1  0
 35 34  1  0
 36 34  1  0
A    1
C2
A    2
C3
A    3
C5
A    4
C9
A    5
C10
A    6
C11
A    7
C12
A    8
C13
A    9
C15
A   10
C18
A   11
N19
A   12
C20
A   13
C21
A   14
C22
A   15
C
A   16
N
A   17
O
A   18
C1
A   19
C4
A   20
C6
A   21
N7
A   22
C8
A   23
C14
A   24
C16
A   25
O17
A   26
C23
A   27
C24
A   28
C25
A   29
C26
A   30
C27
A   31
O28
A   32
O29
A   33
O30
A   34
C31
A   35
C32
A   36
C33
M  END
>  <Id>  (10) 
4ZO5_4Q0_B_803

>  <ChainId>  (10) 
B

>  <AsymId>  (10) 
H

>  <SeqNum>  (10) 
803

>  <Name>  (10) 
2-{2-[3-(4-methoxyphenyl)-4-oxo-3,4-dihydroquinazolin-2-yl]ethyl}-4-(propan-2-yloxy)-1H-isoindole-1,3(2H)-dione

>  <SystematicName>  (10) 
2-[2-[3-(4-methoxyphenyl)-4-oxidanylidene-quinazolin-2-yl]ethyl]-4-propan-2-yloxy-isoindole-1,3-dione

>  <Synonyms>  (10) 


>  <Type>  (10) 
NON-POLYMER

>  <Formula>  (10) 
C28 H25 N3 O5

>  <ObservedFormula>  (10) 
C28 N3 O5

>  <MolecularWeight>  (10) 
483.515

>  <ModifiedDate>  (10) 
2015-08-07

>  <Parent>  (10) 


>  <OneLetterCode>  (10) 


>  <SubcomponentList>  (10) 


>  <AmbiguousFlag>  (10) 
N

>  <InsertionCode>  (10) 


>  <InstanceId>  (10) 
4ZO5_4Q0_B_803

>  <ChemCompId>  (10) 
4Q0

>  <PdbId>  (10) 
4ZO5

>  <ResidueNumber>  (10) 
803

>  <InChI>  (10) 
InChI=1S/C28H25N3O5/c1-17(2)36-23-10-6-8-21-25(23)28(34)30(26(21)32)16-15-24-29-22-9-5-4-7-20(22)27(33)31(24)18-11-13-19(35-3)14-12-18/h4-14,17H,15-16H2,1-3H3

>  <InChIKey>  (10) 
UUAAHYNWZKQZBM-UHFFFAOYSA-N

>  <SMILES>  (10) 
CC(C)Oc1cccc2c1C(=O)N(C2=O)CCC3=Nc4ccccc4C(=O)N3c5ccc(cc5)OC

>  <MissingHeavyAtoms>  (10) 
0

>  <Model>  (10) 
1

>  <AltIds>  (10) 


>  <pKI>  (10) 
9.82

>  <ChemblID>  (10) 
CHEMBL3627841

>  <standardized_canonical_smiles>  (10) 
COc1ccc(-n2c(CCN3C(=O)c4cccc(OC(C)C)c4C3=O)nc3ccccc3c2=O)cc1

$$$$
5DH5_5AY_B_803
     RDKit          3D

 28 32  0  0  0  0  0  0  0  0999 V2000
   -7.9050   -2.3330   19.6470 C   0  0  0  0  0  0  0  0  0  0  0  0
   -8.5820   -2.1050   18.4580 C   0  0  0  0  0  0  0  0  0  0  0  0
   -7.9970   -2.8480   17.3430 N   0  0  0  0  0  0  0  0  0  0  0  0
   -9.4090    0.6490   19.7160 C   0  0  0  0  0  0  0  0  0  0  0  0
   -5.0610   -4.2010   20.8650 C   0  0  0  0  0  0  0  0  0  0  0  0
   -4.4880   -4.2740   22.2440 C   0  0  0  0  0  0  0  0  0  0  0  0
   -5.2070   -5.1630   23.2290 C   0  0  0  0  0  0  0  0  0  0  0  0
   -3.8460   -5.5360   22.7390 C   0  0  0  0  0  0  0  0  0  0  0  0
   -2.6650   -5.4690   23.6280 C   0  0  0  0  0  0  0  0  0  0  0  0
   -1.6140   -5.7010   25.7700 C   0  0  0  0  0  0  0  0  0  0  0  0
   -8.4390   -2.9030   15.9820 N   0  0  0  0  0  0  0  0  0  0  0  0
   -7.6010   -3.7240   15.2840 C   0  0  0  0  0  0  0  0  0  0  0  0
   -6.6310   -4.2120   16.1610 C   0  0  0  0  0  0  0  0  0  0  0  0
   -8.6460    2.3930   20.9630 N   0  0  0  0  0  0  0  0  0  0  0  0
   -6.8970   -3.6590   17.4380 C   0  0  0  0  0  0  0  0  0  0  0  0
   -6.2630   -3.8240   18.6160 N   0  0  0  0  0  0  0  0  0  0  0  0
   -6.1950   -3.3190   20.8990 O   0  0  0  0  0  0  0  0  0  0  0  0
   -6.8000   -3.1700   19.6550 C   0  0  0  0  0  0  0  0  0  0  0  0
   -9.7130   -1.3060   18.1840 N   0  0  0  0  0  0  0  0  0  0  0  0
  -10.2260   -0.5230   19.2950 C   0  0  0  0  0  0  0  0  0  0  0  0
   -8.2970    1.1790   19.0870 C   0  0  0  0  0  0  0  0  0  0  0  0
   -2.7490   -5.7610   24.9800 C   0  0  0  0  0  0  0  0  0  0  0  0
   -0.4070   -5.3500   25.1930 C   0  0  0  0  0  0  0  0  0  0  0  0
   -0.4110   -5.0800   23.8450 C   0  0  0  0  0  0  0  0  0  0  0  0
   -1.4970   -5.1400   23.0600 N   0  0  0  0  0  0  0  0  0  0  0  0
   -7.8940    2.2160   19.8660 N   0  0  0  0  0  0  0  0  0  0  0  0
   -9.5840    1.4410   20.8690 C   0  0  0  0  0  0  0  0  0  0  0  0
   -6.7520    3.0830   19.6210 C   0  0  0  0  0  0  0  0  0  0  0  0
  2  1  2  0
 18  1  1  0
  3  2  1  0
 19  2  1  0
 11  3  1  0
 15  3  1  0
 20  4  1  0
 21  4  2  0
 27  4  1  0
  6  5  1  0
 17  5  1  0
  7  6  1  0
  8  6  1  0
  8  7  1  0
  9  8  1  0
 22  9  1  0
 25  9  2  0
 22 10  2  0
 23 10  1  0
 12 11  2  0
 13 12  1  0
 15 13  2  0
 26 14  1  0
 27 14  2  0
 16 15  1  0
 18 16  2  0
 18 17  1  0
 20 19  1  0
 26 21  1  0
 24 23  2  0
 25 24  1  0
 28 26  1  0
A    1
C2
A    2
C3
A    3
N4
A    4
C7
A    5
C9
A    6
C10
A    7
C11
A    8
C12
A    9
C13
A   10
C15
A   11
N19
A   12
C20
A   13
C21
A   14
N23
A   15
C
A   16
N
A   17
O
A   18
C1
A   19
N5
A   20
C6
A   21
C8
A   22
C14
A   23
C16
A   24
C17
A   25
N18
A   26
N22
A   27
C24
A   28
C25
M  END
>  <Id>  (11) 
5DH5_5AY_B_803

>  <ChainId>  (11) 
B

>  <AsymId>  (11) 
H

>  <SeqNum>  (11) 
803

>  <Name>  (11) 
N-[(1-methyl-1H-pyrazol-4-yl)methyl]-5-{[(1S,2S)-2-(pyridin-2-yl)cyclopropyl]methoxy}pyrazolo[1,5-a]pyrimidin-7-amine

>  <SystematicName>  (11) 
N-[(1-methylpyrazol-4-yl)methyl]-5-[[(1S,2S)-2-pyridin-2-ylcyclopropyl]methoxy]pyrazolo[1,5-a]pyrimidin-7-amine

>  <Synonyms>  (11) 


>  <Type>  (11) 
NON-POLYMER

>  <Formula>  (11) 
C20 H21 N7 O

>  <ObservedFormula>  (11) 
C20 N7 O

>  <MolecularWeight>  (11) 
375.427

>  <ModifiedDate>  (11) 
2016-01-22

>  <Parent>  (11) 


>  <OneLetterCode>  (11) 


>  <SubcomponentList>  (11) 


>  <AmbiguousFlag>  (11) 
N

>  <InsertionCode>  (11) 


>  <InstanceId>  (11) 
5DH5_5AY_B_803

>  <ChemCompId>  (11) 
5AY

>  <PdbId>  (11) 
5DH5

>  <ResidueNumber>  (11) 
803

>  <InChI>  (11) 
InChI=1S/C20H21N7O/c1-26-12-14(11-24-26)10-22-19-9-20(25-18-5-7-23-27(18)19)28-13-15-8-16(15)17-4-2-3-6-21-17/h2-7,9,11-12,15-16,22H,8,10,13H2,1H3/t15-,16+/m1/s1

>  <InChIKey>  (11) 
YLPZTDCVMOWRPZ-CVEARBPZSA-N

>  <SMILES>  (11) 
Cn1cc(cn1)CNc2cc(nc3n2ncc3)OC[C@H]4C[C@@H]4c5ccccn5

>  <MissingHeavyAtoms>  (11) 
0

>  <Model>  (11) 
1

>  <AltIds>  (11) 


>  <pKI>  (11) 
9.56

>  <ChemblID>  (11) 
CHEMBL3695713

>  <standardized_canonical_smiles>  (11) 
Cn1cc(CNc2cc(OC[C@H]3C[C@@H]3c3ccccn3)nc3ccnn23)cn1

$$$$
5DH4_5AV_B_803
     RDKit          3D

 19 21  0  0  0  0  0  0  0  0999 V2000
   -9.3720   -2.1180   18.2070 C   0  0  0  0  0  0  0  0  0  0  0  0
   -7.7450   -3.5830   16.9760 C   0  0  0  0  0  0  0  0  0  0  0  0
   -6.9790   -3.7400   18.0650 N   0  0  0  0  0  0  0  0  0  0  0  0
   -7.5930   -4.0650   15.6500 C   0  0  0  0  0  0  0  0  0  0  0  0
  -10.9100   -0.5800   19.2220 C   0  0  0  0  0  0  0  0  0  0  0  0
  -10.0750    0.5930   19.5640 C   0  0  0  0  0  0  0  0  0  0  0  0
   -8.4670    2.3970   19.7100 C   0  0  0  0  0  0  0  0  0  0  0  0
  -10.1630    1.3730   20.6950 C   0  0  0  0  0  0  0  0  0  0  0  0
   -7.3820    3.3740   19.4630 C   0  0  0  0  0  0  0  0  0  0  0  0
   -7.4520   -3.1130   19.1420 C   0  0  0  0  0  0  0  0  0  0  0  0
   -8.8710   -2.8150   17.0280 N   0  0  0  0  0  0  0  0  0  0  0  0
   -8.7990    1.1640   18.5650 S   0  0  0  0  0  0  0  0  0  0  0  0
   -6.4810   -3.3570   20.5180 Cl  0  0  0  0  0  0  0  0  0  0  0  0
   -8.5710   -2.3300   19.3000 C   0  0  0  0  0  0  0  0  0  0  0  0
   -9.4700   -2.8090   15.7220 N   0  0  0  0  0  0  0  0  0  0  0  0
   -8.6620   -3.5630   14.9130 C   0  0  0  0  0  0  0  0  0  0  0  0
  -10.5490   -1.3660   18.0680 N   0  0  0  0  0  0  0  0  0  0  0  0
   -9.2470    2.3910   20.7680 N   0  0  0  0  0  0  0  0  0  0  0  0
  -11.1330    1.1860   21.7880 C   0  0  0  0  0  0  0  0  0  0  0  0
 11  1  1  0
 14  1  2  0
 17  1  1  0
  3  2  1  0
  4  2  2  0
 11  2  1  0
 10  3  2  0
 16  4  1  0
  6  5  1  0
 17  5  1  0
  8  6  2  0
 12  6  1  0
  9  7  1  0
 12  7  1  0
 18  7  2  0
 18  8  1  0
 19  8  1  0
 13 10  1  0
 14 10  1  0
 15 11  1  0
 16 15  2  0
A    1
C2
A    2
C3
A    3
N4
A    4
C7
A    5
C9
A    6
C10
A    7
C11
A    8
C13
A    9
C15
A   10
C
A   11
N
A   12
S
A   13
CL
A   14
C1
A   15
N5
A   16
C6
A   17
N8
A   18
N12
A   19
C14
M  END
>  <Id>  (12) 
5DH4_5AV_B_803

>  <ChainId>  (12) 
B

>  <AsymId>  (12) 
I

>  <SeqNum>  (12) 
803

>  <Name>  (12) 
5-chloro-N-[(2,4-dimethyl-1,3-thiazol-5-yl)methyl]pyrazolo[1,5-a]pyrimidin-7-amine

>  <SystematicName>  (12) 
5-chloranyl-N-[(2,4-dimethyl-1,3-thiazol-5-yl)methyl]pyrazolo[1,5-a]pyrimidin-7-amine

>  <Synonyms>  (12) 


>  <Type>  (12) 
NON-POLYMER

>  <Formula>  (12) 
C12 H12 Cl N5 S

>  <ObservedFormula>  (12) 
C12 S Cl N5

>  <MolecularWeight>  (12) 
293.775

>  <ModifiedDate>  (12) 
2016-01-22

>  <Parent>  (12) 


>  <OneLetterCode>  (12) 


>  <SubcomponentList>  (12) 


>  <AmbiguousFlag>  (12) 
N

>  <InsertionCode>  (12) 


>  <InstanceId>  (12) 
5DH4_5AV_B_803

>  <ChemCompId>  (12) 
5AV

>  <PdbId>  (12) 
5DH4

>  <ResidueNumber>  (12) 
803

>  <InChI>  (12) 
InChI=1S/C12H12ClN5S/c1-7-9(19-8(2)16-7)6-14-12-5-10(13)17-11-3-4-15-18(11)12/h3-5,14H,6H2,1-2H3

>  <InChIKey>  (12) 
FTTQXQQDHKGVJR-UHFFFAOYSA-N

>  <SMILES>  (12) 
Cc1c(sc(n1)C)CNc2cc(nc3n2ncc3)Cl

>  <MissingHeavyAtoms>  (12) 
0

>  <Model>  (12) 
1

>  <AltIds>  (12) 


>  <pKI>  (12) 
7.24

>  <ChemblID>  (12) 
CHEMBL3747347

>  <standardized_canonical_smiles>  (12) 
Cc1nc(C)c(CNc2cc(Cl)nc3ccnn23)s1

$$$$
4MSC_2ZT_A_900
     RDKit          3D

 22 25  0  0  0  0  0  0  0  0999 V2000
    4.2690   19.7590   36.9560 C   0  0  0  0  0  0  0  0  0  0  0  0
    4.3040   20.3580   35.7010 C   0  0  0  0  0  0  0  0  0  0  0  0
    3.7140   19.7150   34.6130 C   0  0  0  0  0  0  0  0  0  0  0  0
    3.0790   18.4810   34.7750 C   0  0  0  0  0  0  0  0  0  0  0  0
    3.0410   17.8860   36.0320 C   0  0  0  0  0  0  0  0  0  0  0  0
    2.4320   16.6470   36.2190 C   0  0  0  0  0  0  0  0  0  0  0  0
    2.4150   16.0710   37.4890 C   0  0  0  0  0  0  0  0  0  0  0  0
    3.0100   16.7390   38.5600 C   0  0  0  0  0  0  0  0  0  0  0  0
    3.0010   16.1450   39.9560 C   0  0  0  0  0  0  0  0  0  0  0  0
    3.0050   14.6890   39.9410 O   0  0  0  0  0  0  0  0  0  0  0  0
    3.4690   13.8600   40.8810 C   0  0  0  0  0  0  0  0  0  0  0  0
    3.5130   14.2210   42.2260 C   0  0  0  0  0  0  0  0  0  0  0  0
    3.9970   13.3430   43.2000 C   0  0  0  0  0  0  0  0  0  0  0  0
    4.0380   13.7210   44.5060 N   0  0  0  0  0  0  0  0  0  0  0  0
    4.5060   12.8730   45.4630 C   0  0  0  0  0  0  0  0  0  0  0  0
    4.9600   11.6060   45.1040 C   0  0  0  0  0  0  0  0  0  0  0  0
    4.9270   11.2020   43.7830 C   0  0  0  0  0  0  0  0  0  0  0  0
    4.4450   12.0810   42.8280 C   0  0  0  0  0  0  0  0  0  0  0  0
    4.4030   11.7170   41.4840 C   0  0  0  0  0  0  0  0  0  0  0  0
    3.9150   12.6010   40.5290 C   0  0  0  0  0  0  0  0  0  0  0  0
    3.5980   17.9320   38.3440 N   0  0  0  0  0  0  0  0  0  0  0  0
    3.6310   18.5220   37.1230 C   0  0  0  0  0  0  0  0  0  0  0  0
  2  1  2  0
 22  1  1  0
  3  2  1  0
  4  3  2  0
  5  4  1  0
  6  5  1  0
 22  5  2  0
  7  6  2  0
  8  7  1  0
  9  8  1  0
 21  8  2  0
 10  9  1  0
 11 10  1  0
 12 11  2  0
 20 11  1  0
 13 12  1  0
 14 13  2  0
 18 13  1  0
 15 14  1  0
 16 15  2  0
 17 16  1  0
 18 17  2  0
 19 18  1  0
 20 19  2  0
 22 21  1  0
A    1
C1
A    2
C2
A    3
C3
A    4
C4
A    5
C5
A    6
C6
A    7
C7
A    8
C8
A    9
C9
A   10
O10
A   11
C11
A   12
C12
A   13
C13
A   14
N14
A   15
C15
A   16
C16
A   17
C17
A   18
C18
A   19
C19
A   20
C20
A   21
N21
A   22
C22
M  END
>  <Id>  (13) 
4MSC_2ZT_A_900

>  <ChainId>  (13) 
A

>  <AsymId>  (13) 
C

>  <SeqNum>  (13) 
900

>  <Name>  (13) 
2-[(quinolin-7-yloxy)methyl]quinoline

>  <SystematicName>  (13) 
2-(quinolin-7-yloxymethyl)quinoline

>  <Synonyms>  (13) 


>  <Type>  (13) 
NON-POLYMER

>  <Formula>  (13) 
C19 H14 N2 O

>  <ObservedFormula>  (13) 
C19 N2 O

>  <MolecularWeight>  (13) 
286.327

>  <ModifiedDate>  (13) 
2014-05-09

>  <Parent>  (13) 


>  <OneLetterCode>  (13) 


>  <SubcomponentList>  (13) 


>  <AmbiguousFlag>  (13) 
N

>  <InsertionCode>  (13) 


>  <InstanceId>  (13) 
4MSC_2ZT_A_900

>  <ChemCompId>  (13) 
2ZT

>  <PdbId>  (13) 
4MSC

>  <ResidueNumber>  (13) 
900

>  <InChI>  (13) 
InChI=1S/C19H14N2O/c1-2-6-18-14(4-1)7-9-16(21-18)13-22-17-10-8-15-5-3-11-20-19(15)12-17/h1-12H,13H2

>  <InChIKey>  (13) 
XVPLFTQUQMWPKC-UHFFFAOYSA-N

>  <SMILES>  (13) 
c1ccc2c(c1)ccc(n2)COc3ccc4cccnc4c3

>  <MissingHeavyAtoms>  (13) 
0

>  <Model>  (13) 
1

>  <AltIds>  (13) 


>  <pKI>  (13) 
5.96

>  <ChemblID>  (13) 
-

>  <standardized_canonical_smiles>  (13) 
c1cnc2cc(OCc3ccc4ccccc4n3)ccc2c1

$$$$
4LLX_5ZE_A_900
     RDKit          3D

  9  9  0  0  0  0  0  0  0  0999 V2000
    5.6930   11.0820   44.7630 C   0  0  0  0  0  0  0  0  0  0  0  0
    4.8910   12.2030   44.1300 C   0  0  0  0  0  0  0  0  0  0  0  0
    4.7850   12.3370   42.7290 C   0  0  0  0  0  0  0  0  0  0  0  0
    4.0160   13.3940   42.2120 C   0  0  0  0  0  0  0  0  0  0  0  0
    3.8390   13.6130   40.7220 C   0  0  0  0  0  0  0  0  0  0  0  0
    3.4170   14.2640   43.0660 N   0  0  0  0  0  0  0  0  0  0  0  0
    3.5370   14.1190   44.4090 C   0  0  0  0  0  0  0  0  0  0  0  0
    2.9160   14.9900   45.2130 N   0  0  0  0  0  0  0  0  0  0  0  0
    4.2530   13.0910   44.9400 N   0  0  0  0  0  0  0  0  0  0  0  0
  2  1  1  0
  3  2  2  0
  9  2  1  0
  4  3  1  0
  5  4  1  0
  6  4  2  0
  7  6  1  0
  8  7  1  0
  9  7  2  0
A    1
C1
A    2
C2
A    3
C3
A    4
C4
A    5
C5
A    6
N6
A    7
C7
A    8
N8
A    9
N9
M  END
>  <Id>  (14) 
4LLX_5ZE_A_900

>  <ChainId>  (14) 
A

>  <AsymId>  (14) 
C

>  <SeqNum>  (14) 
900

>  <Name>  (14) 
4,6-dimethylpyrimidin-2-amine

>  <SystematicName>  (14) 
4,6-dimethylpyrimidin-2-amine

>  <Synonyms>  (14) 


>  <Type>  (14) 
NON-POLYMER

>  <Formula>  (14) 
C6 H9 N3

>  <ObservedFormula>  (14) 
C6 N3

>  <MolecularWeight>  (14) 
123.156

>  <ModifiedDate>  (14) 
2014-02-21

>  <Parent>  (14) 


>  <OneLetterCode>  (14) 


>  <SubcomponentList>  (14) 


>  <AmbiguousFlag>  (14) 
N

>  <InsertionCode>  (14) 


>  <InstanceId>  (14) 
4LLX_5ZE_A_900

>  <ChemCompId>  (14) 
5ZE

>  <PdbId>  (14) 
4LLX

>  <ResidueNumber>  (14) 
900

>  <InChI>  (14) 
InChI=1S/C6H9N3/c1-4-3-5(2)9-6(7)8-4/h3H,1-2H3,(H2,7,8,9)

>  <InChIKey>  (14) 
IDQNBVFPZMCDDN-UHFFFAOYSA-N

>  <SMILES>  (14) 
Cc1cc(nc(n1)N)C

>  <MissingHeavyAtoms>  (14) 
0

>  <Model>  (14) 
1

>  <AltIds>  (14) 


>  <pKI>  (14) 
2.89

>  <ChemblID>  (14) 
-

>  <standardized_canonical_smiles>  (14) 
Cc1cc(C)nc(N)n1

$$$$
4LLP_4ZE_A_802
     RDKit          3D

  9  9  0  0  0  0  0  0  0  0999 V2000
    4.1910   12.7050   41.0890 C   0  0  0  0  0  0  0  0  0  0  0  0
    3.9960   12.9120   42.5730 C   0  0  0  0  0  0  0  0  0  0  0  0
    3.3780   14.0700   43.0370 C   0  0  0  0  0  0  0  0  0  0  0  0
    3.1860   14.2770   44.4010 C   0  0  0  0  0  0  0  0  0  0  0  0
    2.5910   15.3910   44.8520 N   0  0  0  0  0  0  0  0  0  0  0  0
    3.6130   13.3210   45.3170 C   0  0  0  0  0  0  0  0  0  0  0  0
    4.2340   12.1660   44.8550 C   0  0  0  0  0  0  0  0  0  0  0  0
    4.4250   11.9570   43.4910 C   0  0  0  0  0  0  0  0  0  0  0  0
    5.0200   10.8340   43.0810 O   0  0  0  0  0  0  0  0  0  0  0  0
  2  1  1  0
  3  2  2  0
  8  2  1  0
  4  3  1  0
  5  4  1  0
  6  4  2  0
  7  6  1  0
  8  7  2  0
  9  8  1  0
A    1
C1
A    2
C2
A    3
C3
A    4
C4
A    5
N5
A    6
C6
A    7
C7
A    8
C8
A    9
O9
M  END
>  <Id>  (15) 
4LLP_4ZE_A_802

>  <ChainId>  (15) 
A

>  <AsymId>  (15) 
D

>  <SeqNum>  (15) 
802

>  <Name>  (15) 
4-amino-2-methylphenol

>  <SystematicName>  (15) 
4-azanyl-2-methyl-phenol

>  <Synonyms>  (15) 


>  <Type>  (15) 
NON-POLYMER

>  <Formula>  (15) 
C7 H9 N O

>  <ObservedFormula>  (15) 
C7 N O

>  <MolecularWeight>  (15) 
123.152

>  <ModifiedDate>  (15) 
2014-02-21

>  <Parent>  (15) 


>  <OneLetterCode>  (15) 


>  <SubcomponentList>  (15) 


>  <AmbiguousFlag>  (15) 
N

>  <InsertionCode>  (15) 


>  <InstanceId>  (15) 
4LLP_4ZE_A_802

>  <ChemCompId>  (15) 
4ZE

>  <PdbId>  (15) 
4LLP

>  <ResidueNumber>  (15) 
802

>  <InChI>  (15) 
InChI=1S/C7H9NO/c1-5-4-6(8)2-3-7(5)9/h2-4,9H,8H2,1H3

>  <InChIKey>  (15) 
HDGMAACKJSBLMW-UHFFFAOYSA-N

>  <SMILES>  (15) 
Cc1cc(ccc1O)N

>  <MissingHeavyAtoms>  (15) 
0

>  <Model>  (15) 
1

>  <AltIds>  (15) 


>  <pKI>  (15) 
3.35

>  <ChemblID>  (15) 
-

>  <standardized_canonical_smiles>  (15) 
Cc1cc(N)ccc1O

$$$$
4MRZ_2ZV_A_900
     RDKit          3D

 11 11  0  0  0  0  0  0  0  0999 V2000
    5.2330  -30.3280  -34.7940 C   0  0  0  0  0  0  0  0  0  0  0  0
    4.6130  -28.9480  -34.8860 C   0  0  0  0  0  0  0  0  0  0  0  0
    4.4580  -28.4010  -36.1570 C   0  0  0  0  0  0  0  0  0  0  0  0
    3.8930  -27.1380  -36.2930 C   0  0  0  0  0  0  0  0  0  0  0  0
    3.4920  -26.4490  -35.1970 N   0  0  0  0  0  0  0  0  0  0  0  0
    3.6190  -26.9480  -33.9510 C   0  0  0  0  0  0  0  0  0  0  0  0
    3.1760  -26.2220  -32.9090 N   0  0  0  0  0  0  0  0  0  0  0  0
    4.1780  -28.2240  -33.7570 C   0  0  0  0  0  0  0  0  0  0  0  0
    4.3170  -28.7110  -32.5000 N   0  0  0  0  0  0  0  0  0  0  0  0
    5.2490  -29.4710  -32.2600 O   0  0  0  0  0  0  0  0  0  0  0  0
    3.5820  -28.3930  -31.5700 O   0  0  0  0  0  0  0  0  0  0  0  0
  2  1  1  0
  3  2  2  0
  8  2  1  0
  4  3  1  0
  5  4  2  0
  6  5  1  0
  7  6  1  0
  8  6  2  0
  9  8  1  0
 10  9  1  0
 11  9  2  0
M  CHG  2   9   1  10  -1
A    1
C1
A    2
C2
A    3
C3
A    4
C4
A    5
N5
A    6
C6
A    7
N7
A    8
C8
A    9
N9
A   10
O10
A   11
O11
M  END
>  <Id>  (16) 
4MRZ_2ZV_A_900

>  <ChainId>  (16) 
A

>  <AsymId>  (16) 
C

>  <SeqNum>  (16) 
900

>  <Name>  (16) 
4-methyl-3-nitropyridin-2-amine

>  <SystematicName>  (16) 
4-methyl-3-nitro-pyridin-2-amine

>  <Synonyms>  (16) 


>  <Type>  (16) 
NON-POLYMER

>  <Formula>  (16) 
C6 H7 N3 O2

>  <ObservedFormula>  (16) 
C6 N3 O2

>  <MolecularWeight>  (16) 
153.139

>  <ModifiedDate>  (16) 
2014-05-09

>  <Parent>  (16) 


>  <OneLetterCode>  (16) 


>  <SubcomponentList>  (16) 


>  <AmbiguousFlag>  (16) 
N

>  <InsertionCode>  (16) 


>  <InstanceId>  (16) 
4MRZ_2ZV_A_900

>  <ChemCompId>  (16) 
2ZV

>  <PdbId>  (16) 
4MRZ

>  <ResidueNumber>  (16) 
900

>  <InChI>  (16) 
InChI=1S/C6H7N3O2/c1-4-2-3-8-6(7)5(4)9(10)11/h2-3H,1H3,(H2,7,8)

>  <InChIKey>  (16) 
IKMZGACFMXZAAT-UHFFFAOYSA-N

>  <SMILES>  (16) 
Cc1ccnc(c1[N+](=O)[O-])N

>  <MissingHeavyAtoms>  (16) 
0

>  <Model>  (16) 
1

>  <AltIds>  (16) 


>  <pKI>  (16) 
3.52

>  <ChemblID>  (16) 
-

>  <standardized_canonical_smiles>  (16) 
Cc1ccnc(N)c1[N+](=O)[O-]

$$$$
4LLK_MEW_A_900
     RDKit          3D

 12 13  0  0  0  0  0  0  0  0999 V2000
    3.6590   14.0190   40.6910 C   0  0  0  0  0  0  0  0  0  0  0  0
    3.9130   13.5330   42.0970 C   0  0  0  0  0  0  0  0  0  0  0  0
    3.5340   14.2930   43.1470 N   0  0  0  0  0  0  0  0  0  0  0  0
    3.7640   13.8490   44.4160 C   0  0  0  0  0  0  0  0  0  0  0  0
    3.3510   14.6120   45.5020 C   0  0  0  0  0  0  0  0  0  0  0  0
    3.5990   14.1330   46.7980 C   0  0  0  0  0  0  0  0  0  0  0  0
    4.2290   12.9010   47.0200 C   0  0  0  0  0  0  0  0  0  0  0  0
    4.6390   12.1310   45.9320 C   0  0  0  0  0  0  0  0  0  0  0  0
    4.3940   12.6160   44.6360 C   0  0  0  0  0  0  0  0  0  0  0  0
    4.7790   11.8710   43.5210 C   0  0  0  0  0  0  0  0  0  0  0  0
    5.3340   10.7940   43.6590 O   0  0  0  0  0  0  0  0  0  0  0  0
    4.5240   12.3480   42.2800 N   0  0  0  0  0  0  0  0  0  0  0  0
  2  1  1  0
  3  2  2  0
 12  2  1  0
  4  3  1  0
  5  4  2  0
  9  4  1  0
  6  5  1  0
  7  6  2  0
  8  7  1  0
  9  8  2  0
 10  9  1  0
 11 10  2  0
 12 10  1  0
A    1
CAN
A    2
CAT
A    3
NAO
A    4
CAV
A    5
CAK
A    6
CAG
A    7
CAH
A    8
CAL
A    9
CAW
A   10
CAU
A   11
OAC
A   12
NAQ
M  END
>  <Id>  (17) 
4LLK_MEW_A_900

>  <ChainId>  (17) 
A

>  <AsymId>  (17) 
C

>  <SeqNum>  (17) 
900

>  <Name>  (17) 
2-methylquinazolin-4(3H)-one

>  <SystematicName>  (17) 
2-methyl-3H-quinazolin-4-one

>  <Synonyms>  (17) 


>  <Type>  (17) 
NON-POLYMER

>  <Formula>  (17) 
C9 H8 N2 O

>  <ObservedFormula>  (17) 
C9 N2 O

>  <MolecularWeight>  (17) 
160.173

>  <ModifiedDate>  (17) 
2013-06-14

>  <Parent>  (17) 


>  <OneLetterCode>  (17) 


>  <SubcomponentList>  (17) 


>  <AmbiguousFlag>  (17) 
N

>  <InsertionCode>  (17) 


>  <InstanceId>  (17) 
4LLK_MEW_A_900

>  <ChemCompId>  (17) 
MEW

>  <PdbId>  (17) 
4LLK

>  <ResidueNumber>  (17) 
900

>  <InChI>  (17) 
InChI=1S/C9H8N2O/c1-6-10-8-5-3-2-4-7(8)9(12)11-6/h2-5H,1H3,(H,10,11,12)

>  <InChIKey>  (17) 
FIEYHAAMDAPVCH-UHFFFAOYSA-N

>  <SMILES>  (17) 
CC1=Nc2ccccc2C(=O)N1

>  <MissingHeavyAtoms>  (17) 
0

>  <Model>  (17) 
1

>  <AltIds>  (17) 


>  <pKI>  (17) 
3.0

>  <ChemblID>  (17) 
-

>  <standardized_canonical_smiles>  (17) 
Cc1nc2ccccc2c(=O)[nH]1

$$$$
5C2H_4XU_B_803
     RDKit          3D

 31 34  0  0  0  0  0  0  0  0999 V2000
    9.0710   38.3270   60.3690 C   0  0  0  0  0  0  0  0  0  0  0  0
   10.5280   39.7400   59.0730 C   0  0  0  0  0  0  0  0  0  0  0  0
    8.3210   42.9120   58.5880 C   0  0  0  0  0  0  0  0  0  0  0  0
   10.0830   41.9070   57.7320 C   0  0  0  0  0  0  0  0  0  0  0  0
   11.1720   41.8030   56.7370 C   0  0  0  0  0  0  0  0  0  0  0  0
    7.2450   43.8960   58.8150 C   0  0  0  0  0  0  0  0  0  0  0  0
    4.7570   36.6770   56.8450 C   0  0  0  0  0  0  0  0  0  0  0  0
    3.3980   34.8030   54.1400 C   0  0  0  0  0  0  0  0  0  0  0  0
    1.1210   35.2960   53.7410 C   0  0  0  0  0  0  0  0  0  0  0  0
    1.0230   35.7910   55.0340 C   0  0  0  0  0  0  0  0  0  0  0  0
    7.4700   37.0910   61.5220 C   0  0  0  0  0  0  0  0  0  0  0  0
    6.6850   36.8940   60.4580 N   0  0  0  0  0  0  0  0  0  0  0  0
    6.5830   37.3570   58.1300 O   0  0  0  0  0  0  0  0  0  0  0  0
    8.4460   41.5540   59.6200 S   0  0  0  0  0  0  0  0  0  0  0  0
    6.8760   36.4220   62.9700 Cl  0  0  0  0  0  0  0  0  0  0  0  0
    7.2050   37.4490   59.3620 C   0  0  0  0  0  0  0  0  0  0  0  0
    8.3400   38.1370   59.2670 N   0  0  0  0  0  0  0  0  0  0  0  0
    8.6530   37.7920   61.5600 C   0  0  0  0  0  0  0  0  0  0  0  0
   10.2720   39.0830   60.3440 N   0  0  0  0  0  0  0  0  0  0  0  0
    9.4190   37.9580   62.8270 C   0  0  0  0  0  0  0  0  0  0  0  0
    9.8170   41.0080   58.7430 C   0  0  0  0  0  0  0  0  0  0  0  0
    9.2360   42.9780   57.6480 N   0  0  0  0  0  0  0  0  0  0  0  0
    5.4350   36.5230   58.1950 C   0  0  0  0  0  0  0  0  0  0  0  0
    4.4230   35.2990   56.3170 C   0  0  0  0  0  0  0  0  0  0  0  0
    3.2330   35.3180   55.4110 C   0  0  0  0  0  0  0  0  0  0  0  0
    2.3210   34.7960   53.2850 C   0  0  0  0  0  0  0  0  0  0  0  0
    2.0710   35.8120   55.8720 N   0  0  0  0  0  0  0  0  0  0  0  0
    0.0410   35.2700   52.8950 C   0  0  0  0  0  0  0  0  0  0  0  0
   -1.1680   35.7760   53.3280 C   0  0  0  0  0  0  0  0  0  0  0  0
   -1.2780   36.3110   54.5900 C   0  0  0  0  0  0  0  0  0  0  0  0
   -0.1920   36.3010   55.4350 C   0  0  0  0  0  0  0  0  0  0  0  0
 17  1  1  0
 18  1  2  0
 19  1  1  0
 19  2  1  0
 21  2  1  0
  6  3  1  0
 14  3  1  0
 22  3  2  0
  5  4  1  0
 21  4  2  0
 22  4  1  0
 23  7  1  0
 24  7  1  0
 25  8  2  0
 26  8  1  0
 10  9  1  0
 26  9  2  0
 28  9  1  0
 27 10  2  0
 31 10  1  0
 12 11  2  0
 15 11  1  0
 18 11  1  0
 16 12  1  0
 16 13  1  0
 23 13  1  0
 21 14  1  0
 17 16  2  0
 20 18  1  0
 25 24  1  0
 27 25  1  0
 29 28  2  0
 30 29  1  0
 31 30  2  0
A    1
C3
A    2
C7
A    3
C9
A    4
C11
A    5
C12
A    6
C13
A    7
C15
A    8
C18
A    9
C20
A   10
C21
A   11
C
A   12
N
A   13
O
A   14
S
A   15
CL
A   16
C1
A   17
N2
A   18
C4
A   19
N5
A   20
C6
A   21
C8
A   22
N10
A   23
C14
A   24
C16
A   25
C17
A   26
C19
A   27
N22
A   28
C23
A   29
C24
A   30
C25
A   31
C26
M  END
>  <Id>  (18) 
5C2H_4XU_B_803

>  <ChainId>  (18) 
B

>  <AsymId>  (18) 
H

>  <SeqNum>  (18) 
803

>  <Name>  (18) 
6-chloro-N-[(2,4-dimethyl-1,3-thiazol-5-yl)methyl]-5-methyl-2-[3-(quinolin-2-yl)propoxy]pyrimidin-4-amine

>  <SystematicName>  (18) 
6-chloranyl-N-[(2,4-dimethyl-1,3-thiazol-5-yl)methyl]-5-methyl-2-(3-quinolin-2-ylpropoxy)pyrimidin-4-amine

>  <Synonyms>  (18) 


>  <Type>  (18) 
NON-POLYMER

>  <Formula>  (18) 
C23 H24 Cl N5 O S

>  <ObservedFormula>  (18) 
C23 S Cl N5 O

>  <MolecularWeight>  (18) 
453.988

>  <ModifiedDate>  (18) 
2015-10-02

>  <Parent>  (18) 


>  <OneLetterCode>  (18) 


>  <SubcomponentList>  (18) 


>  <AmbiguousFlag>  (18) 
N

>  <InsertionCode>  (18) 


>  <InstanceId>  (18) 
5C2H_4XU_B_803

>  <ChemCompId>  (18) 
4XU

>  <PdbId>  (18) 
5C2H

>  <ResidueNumber>  (18) 
803

>  <InChI>  (18) 
InChI=1S/C23H24ClN5OS/c1-14-21(24)28-23(29-22(14)25-13-20-15(2)26-16(3)31-20)30-12-6-8-18-11-10-17-7-4-5-9-19(17)27-18/h4-5,7,9-11H,6,8,12-13H2,1-3H3,(H,25,28,29)

>  <InChIKey>  (18) 
DWLPNEAIQATTGD-UHFFFAOYSA-N

>  <SMILES>  (18) 
Cc1c(nc(nc1Cl)OCCCc2ccc3ccccc3n2)NCc4c(nc(s4)C)C

>  <MissingHeavyAtoms>  (18) 
0

>  <Model>  (18) 
1

>  <AltIds>  (18) 


>  <pKI>  (18) 
11.09

>  <ChemblID>  (18) 
-

>  <standardized_canonical_smiles>  (18) 
Cc1nc(C)c(CNc2nc(OCCCc3ccc4ccccc4n3)nc(Cl)c2C)s1

$$$$
4LM3_9ZE_A_801
     RDKit          3D

 13 14  0  0  0  0  0  0  0  0999 V2000
    4.9360   12.2290   45.1140 C   0  0  0  0  0  0  0  0  0  0  0  0
    4.9810   11.6270   43.7500 C   0  0  0  0  0  0  0  0  0  0  0  0
    4.5920   13.5010   45.2750 C   0  0  0  0  0  0  0  0  0  0  0  0
    4.6740   12.3770   42.6990 C   0  0  0  0  0  0  0  0  0  0  0  0
    4.2430   14.3450   44.0880 C   0  0  0  0  0  0  0  0  0  0  0  0
    4.2840   13.8130   42.8790 C   0  0  0  0  0  0  0  0  0  0  0  0
    4.4390   11.8050   41.5200 O   0  0  0  0  0  0  0  0  0  0  0  0
    4.2460   12.6010   40.3230 C   0  0  0  0  0  0  0  0  0  0  0  0
    3.9340   14.5350   41.8090 O   0  0  0  0  0  0  0  0  0  0  0  0
    3.4290   13.8660   40.6190 C   0  0  0  0  0  0  0  0  0  0  0  0
    4.9710   14.1450   46.5620 C   0  0  0  0  0  0  0  0  0  0  0  0
    5.2940   15.6220   46.5790 C   0  0  0  0  0  0  0  0  0  0  0  0
    5.0290   13.4780   47.5930 O   0  0  0  0  0  0  0  0  0  0  0  0
  2  1  2  0
  3  1  1  0
  4  2  1  0
  5  3  2  0
 11  3  1  0
  6  4  2  0
  7  4  1  0
  6  5  1  0
  9  6  1  0
  8  7  1  0
 10  8  1  0
 10  9  1  0
 12 11  1  0
 13 11  2  0
A    1
C1
A    2
C2
A    3
C3
A    4
C4
A    5
C5
A    6
C6
A    7
O7
A    8
C8
A    9
O9
A   10
C10
A   11
C11
A   12
C12
A   13
O13
M  END
>  <Id>  (19) 
4LM3_9ZE_A_801

>  <ChainId>  (19) 
A

>  <AsymId>  (19) 
C

>  <SeqNum>  (19) 
801

>  <Name>  (19) 
1-(2,3-dihydro-1,4-benzodioxin-6-yl)ethanone

>  <SystematicName>  (19) 
1-(2,3-dihydro-1,4-benzodioxin-6-yl)ethanone

>  <Synonyms>  (19) 


>  <Type>  (19) 
NON-POLYMER

>  <Formula>  (19) 
C10 H10 O3

>  <ObservedFormula>  (19) 
C10 O3

>  <MolecularWeight>  (19) 
178.185

>  <ModifiedDate>  (19) 
2014-02-21

>  <Parent>  (19) 


>  <OneLetterCode>  (19) 


>  <SubcomponentList>  (19) 


>  <AmbiguousFlag>  (19) 
N

>  <InsertionCode>  (19) 


>  <InstanceId>  (19) 
4LM3_9ZE_A_801

>  <ChemCompId>  (19) 
9ZE

>  <PdbId>  (19) 
4LM3

>  <ResidueNumber>  (19) 
801

>  <InChI>  (19) 
InChI=1S/C10H10O3/c1-7(11)8-2-3-9-10(6-8)13-5-4-12-9/h2-3,6H,4-5H2,1H3

>  <InChIKey>  (19) 
HGVWMTAIIYNQSI-UHFFFAOYSA-N

>  <SMILES>  (19) 
CC(=O)c1ccc2c(c1)OCCO2

>  <MissingHeavyAtoms>  (19) 
0

>  <Model>  (19) 
1

>  <AltIds>  (19) 


>  <pKI>  (19) 
2.92

>  <ChemblID>  (19) 
-

>  <standardized_canonical_smiles>  (19) 
CC(=O)c1ccc2c(c1)OCCO2

$$$$
4HF4_15H_B_810
     RDKit          3D

 32 36  0  0  0  0  0  0  0  0999 V2000
  -24.6250   44.2090   17.5330 N   0  0  0  0  0  0  0  0  0  0  0  0
  -24.8460   43.0900   16.8050 C   0  0  0  0  0  0  0  0  0  0  0  0
  -24.9820   41.7750   17.2550 C   0  0  0  0  0  0  0  0  0  0  0  0
  -25.2070   40.7290   16.3590 C   0  0  0  0  0  0  0  0  0  0  0  0
  -25.2990   40.9830   14.9910 C   0  0  0  0  0  0  0  0  0  0  0  0
  -25.1640   42.2870   14.5210 C   0  0  0  0  0  0  0  0  0  0  0  0
  -24.9400   43.3300   15.4200 C   0  0  0  0  0  0  0  0  0  0  0  0
  -24.7390   44.9860   15.1970 S   0  0  0  0  0  0  0  0  0  0  0  0
  -24.5440   45.3440   16.8270 C   0  0  0  0  0  0  0  0  0  0  0  0
  -24.3230   46.5760   17.3020 N   0  0  0  0  0  0  0  0  0  0  0  0
  -24.7030   47.0610   18.4920 C   0  0  0  0  0  0  0  0  0  0  0  0
  -24.6730   48.4450   18.6690 C   0  0  0  0  0  0  0  0  0  0  0  0
  -25.0520   49.0110   19.8850 C   0  0  0  0  0  0  0  0  0  0  0  0
  -25.1140   46.2470   19.5520 C   0  0  0  0  0  0  0  0  0  0  0  0
  -25.4950   46.8090   20.7710 C   0  0  0  0  0  0  0  0  0  0  0  0
  -25.4590   48.1950   20.9400 C   0  0  0  0  0  0  0  0  0  0  0  0
  -25.8340   48.7520   22.1300 O   0  0  0  0  0  0  0  0  0  0  0  0
  -24.7930   49.0730   22.9550 C   0  0  0  0  0  0  0  0  0  0  0  0
  -23.6830   48.3090   22.9860 N   0  0  0  0  0  0  0  0  0  0  0  0
  -22.6740   48.6130   23.7870 C   0  0  0  0  0  0  0  0  0  0  0  0
  -22.7590   49.7340   24.6110 C   0  0  0  0  0  0  0  0  0  0  0  0
  -23.8430   50.4950   24.5930 N   0  0  0  0  0  0  0  0  0  0  0  0
  -24.8740   50.1980   23.7830 C   0  0  0  0  0  0  0  0  0  0  0  0
  -26.0090   51.0260   23.7990 N   0  0  0  0  0  0  0  0  0  0  0  0
  -26.2330   51.9710   22.6530 C   0  0  0  0  0  0  0  0  0  0  0  0
  -27.6770   52.4990   22.5670 C   0  0  0  0  0  0  0  0  0  0  0  0
  -26.8910   50.9560   25.0090 C   0  0  0  0  0  0  0  0  0  0  0  0
  -28.2980   51.5280   24.7730 C   0  0  0  0  0  0  0  0  0  0  0  0
  -28.2310   52.8230   23.9640 C   0  0  0  0  0  0  0  0  0  0  0  0
  -29.5890   53.5630   23.9500 C   0  0  0  0  0  0  0  0  0  0  0  0
  -30.6060   52.9670   22.9660 C   0  0  0  0  0  0  0  0  0  0  0  0
  -29.3780   54.9580   23.6930 O   0  0  0  0  0  0  0  0  0  0  0  0
  2  1  1  0
  9  1  2  0
  3  2  2  0
  7  2  1  0
  4  3  1  0
  5  4  2  0
  6  5  1  0
  7  6  2  0
  8  7  1  0
  9  8  1  0
 10  9  1  0
 11 10  1  0
 12 11  2  0
 14 11  1  0
 13 12  1  0
 16 13  2  0
 15 14  2  0
 16 15  1  0
 17 16  1  0
 18 17  1  0
 19 18  2  0
 23 18  1  0
 20 19  1  0
 21 20  2  0
 22 21  1  0
 23 22  2  0
 24 23  1  0
 25 24  1  0
 27 24  1  0
 26 25  1  0
 29 26  1  0
 28 27  1  0
 29 28  1  0
 30 29  1  0
 31 30  1  0
 32 30  1  0
A    1
N4
A    2
C13
A    3
C17
A    4
C16
A    5
C15
A    6
C14
A    7
C12
A    8
S1
A    9
C11
A   10
N3
A   11
C8
A   12
C9
A   13
C10
A   14
C7
A   15
C6
A   16
C5
A   17
O1
A   18
C3
A   19
N2
A   20
C2
A   21
C1
A   22
N1
A   23
C4
A   24
N5
A   25
C22
A   26
C21
A   27
C18
A   28
C19
A   29
C20
A   30
C23
A   31
C24
A   32
O2
M  END
>  <Id>  (20) 
4HF4_15H_B_810

>  <ChainId>  (20) 
B

>  <AsymId>  (20) 
X

>  <SeqNum>  (20) 
810

>  <Name>  (20) 
(1S)-1-(1-{3-[4-(1,3-benzothiazol-2-ylamino)phenoxy]pyrazin-2-yl}piperidin-4-yl)ethanol

>  <SystematicName>  (20) 
(1S)-1-[1-[3-[4-(1,3-benzothiazol-2-ylamino)phenoxy]pyrazin-2-yl]piperidin-4-yl]ethanol

>  <Synonyms>  (20) 


>  <Type>  (20) 
NON-POLYMER

>  <Formula>  (20) 
C24 H25 N5 O2 S

>  <ObservedFormula>  (20) 
C24 S N5 O2

>  <MolecularWeight>  (20) 
447.553

>  <ModifiedDate>  (20) 
2012-12-07

>  <Parent>  (20) 


>  <OneLetterCode>  (20) 


>  <SubcomponentList>  (20) 


>  <AmbiguousFlag>  (20) 
N

>  <InsertionCode>  (20) 


>  <InstanceId>  (20) 
4HF4_15H_B_810

>  <ChemCompId>  (20) 
15H

>  <PdbId>  (20) 
4HF4

>  <ResidueNumber>  (20) 
810

>  <InChI>  (20) 
InChI=1S/C24H25N5O2S/c1-16(30)17-10-14-29(15-11-17)22-23(26-13-12-25-22)31-19-8-6-18(7-9-19)27-24-28-20-4-2-3-5-21(20)32-24/h2-9,12-13,16-17,30H,10-11,14-15H2,1H3,(H,27,28)/t16-/m0/s1

>  <InChIKey>  (20) 
GNWKATFENPQMIQ-INIZCTEOSA-N

>  <SMILES>  (20) 
C[C@@H](C1CCN(CC1)c2c(nccn2)Oc3ccc(cc3)Nc4nc5ccccc5s4)O

>  <MissingHeavyAtoms>  (20) 
0

>  <Model>  (20) 
1

>  <AltIds>  (20) 


>  <pKI>  (20) 
8.62

>  <ChemblID>  (20) 
-

>  <standardized_canonical_smiles>  (20) 
C[C@H](O)C1CCN(c2nccnc2Oc2ccc(Nc3nc4ccccc4s3)cc2)CC1

$$$$
4MS0_2ZX_A_900
     RDKit          3D

  9  9  0  0  0  0  0  0  0  0999 V2000
   -5.7460  -30.2280   32.8310 N   0  0  0  0  0  0  0  0  0  0  0  0
   -5.0960  -29.1490   33.2910 C   0  0  0  0  0  0  0  0  0  0  0  0
   -5.0930  -28.8550   34.6520 C   0  0  0  0  0  0  0  0  0  0  0  0
   -4.3760  -27.7160   35.0620 C   0  0  0  0  0  0  0  0  0  0  0  0
   -4.3510  -27.2720   36.7300 Cl  0  0  0  0  0  0  0  0  0  0  0  0
   -3.7220  -26.9290   34.1750 N   0  0  0  0  0  0  0  0  0  0  0  0
   -3.7350  -27.2510   32.8650 C   0  0  0  0  0  0  0  0  0  0  0  0
   -3.0860  -26.4830   31.9960 N   0  0  0  0  0  0  0  0  0  0  0  0
   -4.4110  -28.3460   32.4310 N   0  0  0  0  0  0  0  0  0  0  0  0
  2  1  1  0
  3  2  2  0
  9  2  1  0
  4  3  1  0
  5  4  1  0
  6  4  2  0
  7  6  1  0
  8  7  1  0
  9  7  2  0
A    1
N1
A    2
C2
A    3
C3
A    4
C4
A    5
CL5
A    6
N6
A    7
C7
A    8
N8
A    9
N9
M  END
>  <Id>  (21) 
4MS0_2ZX_A_900

>  <ChainId>  (21) 
A

>  <AsymId>  (21) 
C

>  <SeqNum>  (21) 
900

>  <Name>  (21) 
6-chloropyrimidine-2,4-diamine

>  <SystematicName>  (21) 
6-chloranylpyrimidine-2,4-diamine

>  <Synonyms>  (21) 


>  <Type>  (21) 
NON-POLYMER

>  <Formula>  (21) 
C4 H5 Cl N4

>  <ObservedFormula>  (21) 
C4 Cl N4

>  <MolecularWeight>  (21) 
144.562

>  <ModifiedDate>  (21) 
2014-05-09

>  <Parent>  (21) 


>  <OneLetterCode>  (21) 


>  <SubcomponentList>  (21) 


>  <AmbiguousFlag>  (21) 
N

>  <InsertionCode>  (21) 


>  <InstanceId>  (21) 
4MS0_2ZX_A_900

>  <ChemCompId>  (21) 
2ZX

>  <PdbId>  (21) 
4MS0

>  <ResidueNumber>  (21) 
900

>  <InChI>  (21) 
InChI=1S/C4H5ClN4/c5-2-1-3(6)9-4(7)8-2/h1H,(H4,6,7,8,9)

>  <InChIKey>  (21) 
QJIUMVUZDYPQRT-UHFFFAOYSA-N

>  <SMILES>  (21) 
c1c(nc(nc1Cl)N)N

>  <MissingHeavyAtoms>  (21) 
0

>  <Model>  (21) 
1

>  <AltIds>  (21) 


>  <pKI>  (21) 
3.39

>  <ChemblID>  (21) 
-

>  <standardized_canonical_smiles>  (21) 
Nc1cc(Cl)nc(N)n1

$$$$
4MSH_2D0_A_900
     RDKit          3D

 11 12  0  0  0  0  0  0  0  0999 V2000
   -3.7760  -27.7830   35.3760 C   0  0  0  0  0  0  0  0  0  0  0  0
   -4.3320  -28.9790   34.6800 C   0  0  0  0  0  0  0  0  0  0  0  0
   -3.7720  -27.7640   36.6950 C   0  0  0  0  0  0  0  0  0  0  0  0
   -4.8290  -30.0520   35.2720 C   0  0  0  0  0  0  0  0  0  0  0  0
   -4.3300  -28.9650   37.3830 C   0  0  0  0  0  0  0  0  0  0  0  0
   -4.8190  -30.0260   36.7640 C   0  0  0  0  0  0  0  0  0  0  0  0
   -3.3410  -26.8420   34.5390 N   0  0  0  0  0  0  0  0  0  0  0  0
   -3.3660  -26.9040   33.2670 C   0  0  0  0  0  0  0  0  0  0  0  0
   -4.1530  -28.4560   33.0060 S   0  0  0  0  0  0  0  0  0  0  0  0
   -2.9840  -26.0790   32.2860 N   0  0  0  0  0  0  0  0  0  0  0  0
   -3.1350  -26.3850   37.5410 Cl  0  0  0  0  0  0  0  0  0  0  0  0
  2  1  1  0
  3  1  2  0
  7  1  1  0
  4  2  2  0
  9  2  1  0
  5  3  1  0
 11  3  1  0
  6  4  1  0
  6  5  2  0
  8  7  2  0
  9  8  1  0
 10  8  1  0
A    1
C1
A    2
C2
A    3
C3
A    4
C4
A    5
C5
A    6
C6
A    7
N7
A    8
C8
A    9
S9
A   10
N10
A   11
CL1
M  END
>  <Id>  (22) 
4MSH_2D0_A_900

>  <ChainId>  (22) 
A

>  <AsymId>  (22) 
C

>  <SeqNum>  (22) 
900

>  <Name>  (22) 
4-chloro-1,3-benzothiazol-2-amine

>  <SystematicName>  (22) 
4-chloranyl-1,3-benzothiazol-2-amine

>  <Synonyms>  (22) 


>  <Type>  (22) 
NON-POLYMER

>  <Formula>  (22) 
C7 H5 Cl N2 S

>  <ObservedFormula>  (22) 
C7 S Cl N2

>  <MolecularWeight>  (22) 
184.646

>  <ModifiedDate>  (22) 
2014-05-09

>  <Parent>  (22) 


>  <OneLetterCode>  (22) 


>  <SubcomponentList>  (22) 


>  <AmbiguousFlag>  (22) 
N

>  <InsertionCode>  (22) 


>  <InstanceId>  (22) 
4MSH_2D0_A_900

>  <ChemCompId>  (22) 
2D0

>  <PdbId>  (22) 
4MSH

>  <ResidueNumber>  (22) 
900

>  <InChI>  (22) 
InChI=1S/C7H5ClN2S/c8-4-2-1-3-5-6(4)10-7(9)11-5/h1-3H,(H2,9,10)

>  <InChIKey>  (22) 
OEQQFQXMCPMEIH-UHFFFAOYSA-N

>  <SMILES>  (22) 
c1cc2c(c(c1)Cl)nc(s2)N

>  <MissingHeavyAtoms>  (22) 
0

>  <Model>  (22) 
1

>  <AltIds>  (22) 


>  <pKI>  (22) 
3.68

>  <ChemblID>  (22) 
-

>  <standardized_canonical_smiles>  (22) 
Nc1nc2c(Cl)cccc2s1

$$$$
4LKQ_1XM_A_900
     RDKit          3D

 11 12  0  0  0  0  0  0  0  0999 V2000
    2.8330   15.0380   41.9400 N   0  0  0  0  0  0  0  0  0  0  0  0
    3.4240   14.0610   42.6520 C   0  0  0  0  0  0  0  0  0  0  0  0
    3.5250   14.1120   44.0120 N   0  0  0  0  0  0  0  0  0  0  0  0
    4.1170   13.1170   44.7420 C   0  0  0  0  0  0  0  0  0  0  0  0
    4.2210   13.2160   46.5140 S   0  0  0  0  0  0  0  0  0  0  0  0
    4.6560   12.0130   44.1540 N   0  0  0  0  0  0  0  0  0  0  0  0
    4.5750   11.9270   42.8030 C   0  0  0  0  0  0  0  0  0  0  0  0
    4.9900   10.9810   41.9380 N   0  0  0  0  0  0  0  0  0  0  0  0
    4.6720   11.3500   40.6970 N   0  0  0  0  0  0  0  0  0  0  0  0
    4.0420   12.5480   40.7130 C   0  0  0  0  0  0  0  0  0  0  0  0
    3.9680   12.9360   42.0430 C   0  0  0  0  0  0  0  0  0  0  0  0
  2  1  1  0
  3  2  2  0
 11  2  1  0
  4  3  1  0
  5  4  2  0
  6  4  1  0
  7  6  1  0
  8  7  1  0
 11  7  2  0
  9  8  1  0
 10  9  2  0
 11 10  1  0
A    1
N1
A    2
C2
A    3
N3
A    4
C4
A    5
S5
A    6
N6
A    7
C7
A    8
N8
A    9
N9
A   10
C10
A   11
C11
M  END
>  <Id>  (23) 
4LKQ_1XM_A_900

>  <ChainId>  (23) 
A

>  <AsymId>  (23) 
C

>  <SeqNum>  (23) 
900

>  <Name>  (23) 
4-amino-1,7-dihydro-6H-pyrazolo[3,4-d]pyrimidine-6-thione

>  <SystematicName>  (23) 
4-azanyl-1,7-dihydropyrazolo[3,4-d]pyrimidine-6-thione

>  <Synonyms>  (23) 


>  <Type>  (23) 
NON-POLYMER

>  <Formula>  (23) 
C5 H5 N5 S

>  <ObservedFormula>  (23) 
C5 S N5

>  <MolecularWeight>  (23) 
167.192

>  <ModifiedDate>  (23) 
2014-02-21

>  <Parent>  (23) 


>  <OneLetterCode>  (23) 


>  <SubcomponentList>  (23) 


>  <AmbiguousFlag>  (23) 
N

>  <InsertionCode>  (23) 


>  <InstanceId>  (23) 
4LKQ_1XM_A_900

>  <ChemCompId>  (23) 
1XM

>  <PdbId>  (23) 
4LKQ

>  <ResidueNumber>  (23) 
900

>  <InChI>  (23) 
InChI=1S/C5H5N5S/c6-3-2-1-7-10-4(2)9-5(11)8-3/h1H,(H4,6,7,8,9,10,11)

>  <InChIKey>  (23) 
YJMNLDSYAAJOPX-UHFFFAOYSA-N

>  <SMILES>  (23) 
c1c2c([nH]n1)NC(=S)N=C2N

>  <MissingHeavyAtoms>  (23) 
0

>  <Model>  (23) 
1

>  <AltIds>  (23) 


>  <pKI>  (23) 
3.35

>  <ChemblID>  (23) 
-

>  <standardized_canonical_smiles>  (23) 
Nc1nc(=S)[nH]c2[nH]ncc12

$$$$
4LLJ_1XN_A_900
     RDKit          3D

 11 12  0  0  0  0  0  0  0  0999 V2000
    3.4930   13.9410   40.7790 N   0  0  0  0  0  0  0  0  0  0  0  0
    3.6800   13.7560   42.0320 C   0  0  0  0  0  0  0  0  0  0  0  0
    3.2710   14.6080   42.9980 N   0  0  0  0  0  0  0  0  0  0  0  0
    3.6110   14.1420   44.2220 C   0  0  0  0  0  0  0  0  0  0  0  0
    3.3500   14.7300   45.3390 N   0  0  0  0  0  0  0  0  0  0  0  0
    4.2700   12.9280   44.0380 C   0  0  0  0  0  0  0  0  0  0  0  0
    4.8240   12.0310   44.9560 C   0  0  0  0  0  0  0  0  0  0  0  0
    5.4250   10.8870   44.4220 C   0  0  0  0  0  0  0  0  0  0  0  0
    5.4620   10.6520   43.0450 C   0  0  0  0  0  0  0  0  0  0  0  0
    4.9110   11.5430   42.1270 C   0  0  0  0  0  0  0  0  0  0  0  0
    4.3130   12.6850   42.6540 C   0  0  0  0  0  0  0  0  0  0  0  0
  2  1  1  0
  3  2  1  0
 11  2  2  0
  4  3  1  0
  5  4  1  0
  6  4  2  0
  7  6  1  0
 11  6  1  0
  8  7  2  0
  9  8  1  0
 10  9  2  0
 11 10  1  0
A    1
N1
A    2
C2
A    3
N3
A    4
C4
A    5
N5
A    6
C6
A    7
C7
A    8
C8
A    9
C9
A   10
C10
A   11
C11
M  END
>  <Id>  (24) 
4LLJ_1XN_A_900

>  <ChainId>  (24) 
A

>  <AsymId>  (24) 
C

>  <SeqNum>  (24) 
900

>  <Name>  (24) 
2H-isoindole-1,3-diamine

>  <SystematicName>  (24) 
2H-isoindole-1,3-diamine

>  <Synonyms>  (24) 


>  <Type>  (24) 
NON-POLYMER

>  <Formula>  (24) 
C8 H9 N3

>  <ObservedFormula>  (24) 
C8 N3

>  <MolecularWeight>  (24) 
147.177

>  <ModifiedDate>  (24) 
2014-02-21

>  <Parent>  (24) 


>  <OneLetterCode>  (24) 


>  <SubcomponentList>  (24) 


>  <AmbiguousFlag>  (24) 
N

>  <InsertionCode>  (24) 


>  <InstanceId>  (24) 
4LLJ_1XN_A_900

>  <ChemCompId>  (24) 
1XN

>  <PdbId>  (24) 
4LLJ

>  <ResidueNumber>  (24) 
900

>  <InChI>  (24) 
InChI=1S/C8H9N3/c9-7-5-3-1-2-4-6(5)8(10)11-7/h1-4,11H,9-10H2

>  <InChIKey>  (24) 
DPDSFQSSCBFWBA-UHFFFAOYSA-N

>  <SMILES>  (24) 
c1ccc2c(c1)c([nH]c2N)N

>  <MissingHeavyAtoms>  (24) 
0

>  <Model>  (24) 
1

>  <AltIds>  (24) 


>  <pKI>  (24) 
3.42

>  <ChemblID>  (24) 
-

>  <standardized_canonical_smiles>  (24) 
Nc1[nH]c(N)c2ccccc12

$$$$
4MRW_MRW_A_900
     RDKit          3D

 12 13  0  0  0  0  0  0  0  0999 V2000
    3.0590  -26.2230  -35.8960 O   0  0  0  0  0  0  0  0  0  0  0  0
    3.8100  -27.2400  -35.5050 C   0  0  0  0  0  0  0  0  0  0  0  0
    4.3810  -28.0580  -36.4690 C   0  0  0  0  0  0  0  0  0  0  0  0
    5.1610  -29.1270  -36.0570 C   0  0  0  0  0  0  0  0  0  0  0  0
    5.3710  -29.3800  -34.7470 N   0  0  0  0  0  0  0  0  0  0  0  0
    4.8270  -28.5970  -33.7950 C   0  0  0  0  0  0  0  0  0  0  0  0
    5.0690  -28.8900  -32.4550 C   0  0  0  0  0  0  0  0  0  0  0  0
    4.5090  -28.0830  -31.4670 C   0  0  0  0  0  0  0  0  0  0  0  0
    4.8160  -28.4480  -29.7940 Cl  0  0  0  0  0  0  0  0  0  0  0  0
    3.7160  -26.9890  -31.8230 C   0  0  0  0  0  0  0  0  0  0  0  0
    3.4740  -26.6950  -33.1610 C   0  0  0  0  0  0  0  0  0  0  0  0
    4.0310  -27.5010  -34.1540 C   0  0  0  0  0  0  0  0  0  0  0  0
  2  1  1  0
  3  2  2  0
 12  2  1  0
  4  3  1  0
  5  4  2  0
  6  5  1  0
  7  6  1  0
 12  6  2  0
  8  7  2  0
  9  8  1  0
 10  8  1  0
 11 10  2  0
 12 11  1  0
A    1
O1
A    2
C2
A    3
C3
A    4
C4
A    5
N5
A    6
C6
A    7
C7
A    8
C8
A    9
CL9
A   10
C10
A   11
C11
A   12
C12
M  END
>  <Id>  (25) 
4MRW_MRW_A_900

>  <ChainId>  (25) 
A

>  <AsymId>  (25) 
C

>  <SeqNum>  (25) 
900

>  <Name>  (25) 
7-chloroquinolin-4-ol

>  <SystematicName>  (25) 
7-chloranylquinolin-4-ol

>  <Synonyms>  (25) 


>  <Type>  (25) 
NON-POLYMER

>  <Formula>  (25) 
C9 H6 Cl N O

>  <ObservedFormula>  (25) 
C9 Cl N O

>  <MolecularWeight>  (25) 
179.603

>  <ModifiedDate>  (25) 
2014-05-09

>  <Parent>  (25) 


>  <OneLetterCode>  (25) 


>  <SubcomponentList>  (25) 


>  <AmbiguousFlag>  (25) 
N

>  <InsertionCode>  (25) 


>  <InstanceId>  (25) 
4MRW_MRW_A_900

>  <ChemCompId>  (25) 
MRW

>  <PdbId>  (25) 
4MRW

>  <ResidueNumber>  (25) 
900

>  <InChI>  (25) 
InChI=1S/C9H6ClNO/c10-6-1-2-7-8(5-6)11-4-3-9(7)12/h1-5H,(H,11,12)

>  <InChIKey>  (25) 
XMFXTXKSWIDMER-UHFFFAOYSA-N

>  <SMILES>  (25) 
c1cc2c(ccnc2cc1Cl)O

>  <MissingHeavyAtoms>  (25) 
0

>  <Model>  (25) 
1

>  <AltIds>  (25) 


>  <pKI>  (25) 
3.3

>  <ChemblID>  (25) 
-

>  <standardized_canonical_smiles>  (25) 
Oc1ccnc2cc(Cl)ccc12

$$$$
4LM4_JPZ_A_900
     RDKit          3D

 11 12  0  0  0  0  0  0  0  0999 V2000
    4.7040   11.7380   46.6180 C   0  0  0  0  0  0  0  0  0  0  0  0
    4.0400   12.8440   47.1510 C   0  0  0  0  0  0  0  0  0  0  0  0
    4.8380   11.5900   45.2350 C   0  0  0  0  0  0  0  0  0  0  0  0
    3.5020   13.8150   46.2980 C   0  0  0  0  0  0  0  0  0  0  0  0
    3.2520   14.4650   42.7230 C   0  0  0  0  0  0  0  0  0  0  0  0
    4.3050   12.5580   44.3770 C   0  0  0  0  0  0  0  0  0  0  0  0
    3.6390   13.6700   44.9120 C   0  0  0  0  0  0  0  0  0  0  0  0
    4.4200   12.4450   42.9830 C   0  0  0  0  0  0  0  0  0  0  0  0
    3.1300   14.6050   44.0690 N   0  0  0  0  0  0  0  0  0  0  0  0
    3.8890   13.4030   42.1810 N   0  0  0  0  0  0  0  0  0  0  0  0
    5.0370   11.4060   42.4320 O   0  0  0  0  0  0  0  0  0  0  0  0
  2  1  2  0
  3  1  1  0
  4  2  1  0
  6  3  2  0
  7  4  2  0
  9  5  1  0
 10  5  2  0
  7  6  1  0
  8  6  1  0
  9  7  1  0
 10  8  1  0
 11  8  2  0
A    1
C9
A    2
C8
A    3
C10
A    4
C7
A    5
C4
A    6
C11
A    7
C6
A    8
C2
A    9
N5
A   10
N3
A   11
O1
M  END
>  <Id>  (26) 
4LM4_JPZ_A_900

>  <ChainId>  (26) 
A

>  <AsymId>  (26) 
C

>  <SeqNum>  (26) 
900

>  <Name>  (26) 
quinazolin-4(1H)-one

>  <SystematicName>  (26) 
1H-quinazolin-4-one

>  <Synonyms>  (26) 


>  <Type>  (26) 
NON-POLYMER

>  <Formula>  (26) 
C8 H6 N2 O

>  <ObservedFormula>  (26) 
C8 N2 O

>  <MolecularWeight>  (26) 
146.146

>  <ModifiedDate>  (26) 
2011-06-04

>  <Parent>  (26) 


>  <OneLetterCode>  (26) 


>  <SubcomponentList>  (26) 


>  <AmbiguousFlag>  (26) 
N

>  <InsertionCode>  (26) 


>  <InstanceId>  (26) 
4LM4_JPZ_A_900

>  <ChemCompId>  (26) 
JPZ

>  <PdbId>  (26) 
4LM4

>  <ResidueNumber>  (26) 
900

>  <InChI>  (26) 
InChI=1S/C8H6N2O/c11-8-6-3-1-2-4-7(6)9-5-10-8/h1-5H,(H,9,10,11)

>  <InChIKey>  (26) 
QMNUDYFKZYBWQX-UHFFFAOYSA-N

>  <SMILES>  (26) 
c1ccc2c(c1)C(=O)N=CN2

>  <MissingHeavyAtoms>  (26) 
0

>  <Model>  (26) 
1

>  <AltIds>  (26) 


>  <pKI>  (26) 
3.04

>  <ChemblID>  (26) 
-

>  <standardized_canonical_smiles>  (26) 
O=c1nc[nH]c2ccccc12

$$$$
4LM2_8ZE_A_900
     RDKit          3D

 12 13  0  0  0  0  0  0  0  0999 V2000
    5.3340   12.2930   48.0430 O   0  0  0  0  0  0  0  0  0  0  0  0
    4.2710   12.9400   47.3470 C   0  0  0  0  0  0  0  0  0  0  0  0
    4.4550   12.8250   45.8530 C   0  0  0  0  0  0  0  0  0  0  0  0
    5.0880   11.6930   45.3360 C   0  0  0  0  0  0  0  0  0  0  0  0
    5.2640   11.5670   43.9580 C   0  0  0  0  0  0  0  0  0  0  0  0
    4.8050   12.5800   43.1150 C   0  0  0  0  0  0  0  0  0  0  0  0
    4.9780   12.4500   41.7980 O   0  0  0  0  0  0  0  0  0  0  0  0
    4.1540   13.2160   40.8650 C   0  0  0  0  0  0  0  0  0  0  0  0
    3.9790   14.6500   41.3780 C   0  0  0  0  0  0  0  0  0  0  0  0
    3.7400   14.6830   42.8160 O   0  0  0  0  0  0  0  0  0  0  0  0
    4.1670   13.7210   43.6350 C   0  0  0  0  0  0  0  0  0  0  0  0
    3.9890   13.8530   45.0140 C   0  0  0  0  0  0  0  0  0  0  0  0
  2  1  1  0
  3  2  1  0
  4  3  2  0
 12  3  1  0
  5  4  1  0
  6  5  2  0
  7  6  1  0
 11  6  1  0
  8  7  1  0
  9  8  1  0
 10  9  1  0
 11 10  1  0
 12 11  2  0
A    1
O1
A    2
C2
A    3
C3
A    4
C4
A    5
C5
A    6
C6
A    7
O7
A    8
C8
A    9
C9
A   10
O10
A   11
C11
A   12
C12
M  END
>  <Id>  (27) 
4LM2_8ZE_A_900

>  <ChainId>  (27) 
A

>  <AsymId>  (27) 
C

>  <SeqNum>  (27) 
900

>  <Name>  (27) 
2,3-dihydro-1,4-benzodioxin-6-ylmethanol

>  <SystematicName>  (27) 
2,3-dihydro-1,4-benzodioxin-6-ylmethanol

>  <Synonyms>  (27) 


>  <Type>  (27) 
NON-POLYMER

>  <Formula>  (27) 
C9 H10 O3

>  <ObservedFormula>  (27) 
C9 O3

>  <MolecularWeight>  (27) 
166.174

>  <ModifiedDate>  (27) 
2014-02-21

>  <Parent>  (27) 


>  <OneLetterCode>  (27) 


>  <SubcomponentList>  (27) 


>  <AmbiguousFlag>  (27) 
N

>  <InsertionCode>  (27) 


>  <InstanceId>  (27) 
4LM2_8ZE_A_900

>  <ChemCompId>  (27) 
8ZE

>  <PdbId>  (27) 
4LM2

>  <ResidueNumber>  (27) 
900

>  <InChI>  (27) 
InChI=1S/C9H10O3/c10-6-7-1-2-8-9(5-7)12-4-3-11-8/h1-2,5,10H,3-4,6H2

>  <InChIKey>  (27) 
FFLHNBGNAWYMRH-UHFFFAOYSA-N

>  <SMILES>  (27) 
c1cc2c(cc1CO)OCCO2

>  <MissingHeavyAtoms>  (27) 
0

>  <Model>  (27) 
1

>  <AltIds>  (27) 


>  <pKI>  (27) 
3.03

>  <ChemblID>  (27) 
-

>  <standardized_canonical_smiles>  (27) 
OCc1ccc2c(c1)OCCO2

$$$$
4MSA_2ZM_A_903
     RDKit          3D

 12 13  0  0  0  0  0  0  0  0999 V2000
    6.4190  -33.5640   -1.8640 O   0  0  0  0  0  0  0  0  0  0  0  0
    7.1620  -34.5390   -1.9310 N   0  0  0  0  0  0  0  0  0  0  0  0
    8.3770  -34.3770   -1.8560 O   0  0  0  0  0  0  0  0  0  0  0  0
    6.6720  -35.7870   -2.0660 C   0  0  0  0  0  0  0  0  0  0  0  0
    5.3340  -36.0820   -1.7820 C   0  0  0  0  0  0  0  0  0  0  0  0
    4.8270  -37.3750   -1.8960 C   0  0  0  0  0  0  0  0  0  0  0  0
    5.7270  -38.3520   -2.3160 C   0  0  0  0  0  0  0  0  0  0  0  0
    5.5620  -39.6700   -2.5270 N   0  0  0  0  0  0  0  0  0  0  0  0
    6.7460  -40.1860   -2.9280 C   0  0  0  0  0  0  0  0  0  0  0  0
    7.6670  -39.2040   -2.9760 N   0  0  0  0  0  0  0  0  0  0  0  0
    7.0590  -38.0620   -2.6030 C   0  0  0  0  0  0  0  0  0  0  0  0
    7.5660  -36.7730   -2.4880 C   0  0  0  0  0  0  0  0  0  0  0  0
  2  1  1  0
  3  2  2  0
  4  2  1  0
  5  4  2  0
 12  4  1  0
  6  5  1  0
  7  6  2  0
  8  7  1  0
 11  7  1  0
  9  8  1  0
 10  9  2  0
 11 10  1  0
 12 11  2  0
M  CHG  2   1  -1   2   1
A    1
O1
A    2
N2
A    3
O3
A    4
C4
A    5
C5
A    6
C6
A    7
C7
A    8
N8
A    9
C9
A   10
N10
A   11
C11
A   12
C12
M  END
>  <Id>  (28) 
4MSA_2ZM_A_903

>  <ChainId>  (28) 
A

>  <AsymId>  (28) 
F

>  <SeqNum>  (28) 
903

>  <Name>  (28) 
5-nitro-1H-benzimidazole

>  <SystematicName>  (28) 
5-nitro-1H-benzimidazole

>  <Synonyms>  (28) 


>  <Type>  (28) 
NON-POLYMER

>  <Formula>  (28) 
C7 H5 N3 O2

>  <ObservedFormula>  (28) 
C7 N3 O2

>  <MolecularWeight>  (28) 
163.133

>  <ModifiedDate>  (28) 
2014-02-14

>  <Parent>  (28) 


>  <OneLetterCode>  (28) 


>  <SubcomponentList>  (28) 


>  <AmbiguousFlag>  (28) 
N

>  <InsertionCode>  (28) 


>  <InstanceId>  (28) 
4MSA_2ZM_A_903

>  <ChemCompId>  (28) 
2ZM

>  <PdbId>  (28) 
4MSA

>  <ResidueNumber>  (28) 
903

>  <InChI>  (28) 
InChI=1S/C7H5N3O2/c11-10(12)5-1-2-6-7(3-5)9-4-8-6/h1-4H,(H,8,9)

>  <InChIKey>  (28) 
XPAZGLFMMUODDK-UHFFFAOYSA-N

>  <SMILES>  (28) 
c1cc2c(cc1[N+](=O)[O-])nc[nH]2

>  <MissingHeavyAtoms>  (28) 
0

>  <Model>  (28) 
1

>  <AltIds>  (28) 


>  <pKI>  (28) 
3.3

>  <ChemblID>  (28) 
-

>  <standardized_canonical_smiles>  (28) 
O=[N+]([O-])c1ccc2[nH]cnc2c1

$$$$
2ZMF_MSE_B_417
     RDKit          3D

  8  8  0  0  0  0  0  0  0  0999 V2000
  -24.4600   37.2050   73.8980 N   0  0  0  0  0  0  0  0  0  0  0  0
  -24.7530   38.4430   73.1800 C   0  0  0  0  0  0  0  0  0  0  0  0
  -26.1160   38.3440   72.4860 C   0  0  0  0  0  0  0  0  0  0  0  0
  -26.8840   39.3180   72.4510 O   0  0  0  0  0  0  0  0  0  0  0  0
  -23.6670   38.7360   72.1490 C   0  0  0  0  0  0  0  0  0  0  0  0
  -22.3300   39.0850   72.7470 C   0  0  0  0  0  0  0  0  0  0  0  0
  -21.1490   39.9810   71.4630 Se  0  0  0  0  0  2  0  0  0  0  0  0
  -20.6250   41.6220   72.5680 C   0  0  0  0  0  0  0  0  0  0  0  0
  2  1  1  0
  1  3  1  0
  3  2  1  0
  5  2  1  0
  4  3  2  0
  6  5  1  0
  7  6  1  0
  8  7  1  0
A    1
N
A    2
CA
A    3
C
A    4
O
A    5
CB
A    6
CG
A    7
SE
A    8
CE
M  END
>  <Id>  (29) 
2ZMF_MSE_B_417

>  <ChainId>  (29) 
B

>  <AsymId>  (29) 
B

>  <SeqNum>  (29) 
417

>  <Name>  (29) 
SELENOMETHIONINE

>  <SystematicName>  (29) 
(2S)-2-amino-4-methylselanyl-butanoic acid

>  <Synonyms>  (29) 


>  <Type>  (29) 
L-PEPTIDE LINKING

>  <Formula>  (29) 
C5 H11 N O2 Se

>  <ObservedFormula>  (29) 
Se C5 N O

>  <MolecularWeight>  (29) 
196.106

>  <ModifiedDate>  (29) 
2011-06-04

>  <Parent>  (29) 
MET

>  <OneLetterCode>  (29) 
M

>  <SubcomponentList>  (29) 


>  <AmbiguousFlag>  (29) 
N

>  <InsertionCode>  (29) 


>  <InstanceId>  (29) 
2ZMF_MSE_B_417

>  <ChemCompId>  (29) 
MSE

>  <PdbId>  (29) 
2ZMF

>  <ResidueNumber>  (29) 
417

>  <InChI>  (29) 
InChI=1S/C5H11NO2Se/c1-9-3-2-4(6)5(7)8/h4H,2-3,6H2,1H3,(H,7,8)/t4-/m0/s1

>  <InChIKey>  (29) 
RJFAYQIBOAGBLC-BYPYZUCNSA-N

>  <SMILES>  (29) 
C[Se]CC[C@@H](C(=O)O)N

>  <MissingHeavyAtoms>  (29) 
1

>  <Model>  (29) 
1

>  <AltIds>  (29) 


>  <pKI>  (29) 
3.3

>  <ChemblID>  (29) 
-

>  <standardized_canonical_smiles>  (29) 
O=[N+]([O-])c1ccc2[nH]cnc2c1

$$$$
2ZMF_CMP_B_2001
     RDKit          3D

 22 25  0  0  0  0  0  0  0  0999 V2000
  -17.8820   16.2770   89.0100 P   0  0  0  0  0  0  0  0  0  0  0  0
  -17.2040   17.3250   88.1940 O   0  0  0  0  0  0  0  0  0  0  0  0
  -17.2790   16.0970   90.4310 O   0  0  0  0  0  0  0  0  0  0  0  0
  -19.4100   16.8030   89.1560 O   0  0  0  0  0  0  0  0  0  0  0  0
  -20.2200   16.6580   87.9810 C   0  0  0  0  0  0  0  0  0  0  0  0
  -20.0630   15.2950   87.3890 C   0  0  0  0  0  0  0  0  0  0  0  0
  -20.7590   14.9990   86.1460 O   0  0  0  0  0  0  0  0  0  0  0  0
  -18.6330   14.8870   87.0480 C   0  0  0  0  0  0  0  0  0  0  0  0
  -17.8880   14.8660   88.2660 O   0  0  0  0  0  0  0  0  0  0  0  0
  -18.8470   13.5410   86.3850 C   0  0  0  0  0  0  0  0  0  0  0  0
  -18.9770   12.4600   87.3300 O   0  0  0  0  0  0  0  0  0  0  0  0
  -20.2370   13.7040   85.7390 C   0  0  0  0  0  0  0  0  0  0  0  0
  -20.2910   13.8540   84.2720 N   0  0  0  0  0  0  0  0  0  0  0  0
  -19.7970   14.8660   83.4980 C   0  0  0  0  0  0  0  0  0  0  0  0
  -20.0710   14.6040   82.2070 N   0  0  0  0  0  0  0  0  0  0  0  0
  -20.7390   13.4320   82.1650 C   0  0  0  0  0  0  0  0  0  0  0  0
  -21.3560   12.7000   81.1470 C   0  0  0  0  0  0  0  0  0  0  0  0
  -21.3240   13.1650   79.8670 N   0  0  0  0  0  0  0  0  0  0  0  0
  -21.9790   11.5140   81.4750 N   0  0  0  0  0  0  0  0  0  0  0  0
  -22.0370   11.0800   82.7390 C   0  0  0  0  0  0  0  0  0  0  0  0
  -21.4990   11.7930   83.7630 N   0  0  0  0  0  0  0  0  0  0  0  0
  -20.8610   12.9590   83.4890 C   0  0  0  0  0  0  0  0  0  0  0  0
  2  1  2  0
  3  1  1  0
  4  1  1  0
  9  1  1  0
  5  4  1  0
  6  5  1  0
  7  6  1  0
  8  6  1  0
 12  7  1  0
  9  8  1  0
 10  8  1  0
 11 10  1  0
 12 10  1  0
 13 12  1  0
 14 13  1  0
 22 13  1  0
 15 14  2  0
 16 15  1  0
 17 16  1  0
 22 16  2  0
 18 17  1  0
 19 17  2  0
 20 19  1  0
 21 20  2  0
 22 21  1  0
A    1
P
A    2
O1P
A    3
O2P
A    4
O5'
A    5
C5'
A    6
C4'
A    7
O4'
A    8
C3'
A    9
O3'
A   10
C2'
A   11
O2'
A   12
C1'
A   13
N9
A   14
C8
A   15
N7
A   16
C5
A   17
C6
A   18
N6
A   19
N1
A   20
C2
A   21
N3
A   22
C4
M  END
>  <Id>  (30) 
2ZMF_CMP_B_2001

>  <ChainId>  (30) 
B

>  <AsymId>  (30) 
D

>  <SeqNum>  (30) 
2001

>  <Name>  (30) 
ADENOSINE-3',5'-CYCLIC-MONOPHOSPHATE

>  <SystematicName>  (30) 
(1R,4R,6S,7R,8R)-8-(6-aminopurin-9-yl)-4-hydroxy-4-oxo-3,5,9-trioxa-4$l^{5}-phosphabicyclo[4.3.0]nonan-7-ol

>  <Synonyms>  (30) 
CYCLIC AMP; CAMP

>  <Type>  (30) 
NON-POLYMER

>  <Formula>  (30) 
C10 H12 N5 O6 P

>  <ObservedFormula>  (30) 
P C10 N5 O6

>  <MolecularWeight>  (30) 
329.206

>  <ModifiedDate>  (30) 
2011-06-04

>  <Parent>  (30) 


>  <OneLetterCode>  (30) 


>  <SubcomponentList>  (30) 


>  <AmbiguousFlag>  (30) 
N

>  <InsertionCode>  (30) 


>  <InstanceId>  (30) 
2ZMF_CMP_B_2001

>  <ChemCompId>  (30) 
CMP

>  <PdbId>  (30) 
2ZMF

>  <ResidueNumber>  (30) 
2001

>  <InChI>  (30) 
InChI=1S/C10H12N5O6P/c11-8-5-9(13-2-12-8)15(3-14-5)10-6(16)7-4(20-10)1-19-22(17,18)21-7/h2-4,6-7,10,16H,1H2,(H,17,18)(H2,11,12,13)/t4-,6-,7-,10-/m1/s1

>  <InChIKey>  (30) 
IVOMOUWHDPKRLL-KQYNXXCUSA-N

>  <SMILES>  (30) 
c1nc(c2c(n1)n(cn2)[C@H]3[C@@H]([C@H]4[C@H](O3)CO[P@](=O)(O4)O)O)N

>  <MissingHeavyAtoms>  (30) 
0

>  <Model>  (30) 
1

>  <AltIds>  (30) 


>  <pKI>  (30) 
3.3

>  <ChemblID>  (30) 
-

>  <standardized_canonical_smiles>  (30) 
O=[N+]([O-])c1ccc2[nH]cnc2c1

$$$$
4LM0_5NI_A_900
     RDKit          3D

 12 13  0  0  0  0  0  0  0  0999 V2000
    5.4120   11.0670   43.2010 C   0  0  0  0  0  0  0  0  0  0  0  0
    4.7790   12.1680   43.7810 C   0  0  0  0  0  0  0  0  0  0  0  0
    4.1180   13.0390   42.9090 C   0  0  0  0  0  0  0  0  0  0  0  0
    4.0920   12.8230   41.5310 C   0  0  0  0  0  0  0  0  0  0  0  0
    4.7260   11.7240   40.9550 C   0  0  0  0  0  0  0  0  0  0  0  0
    5.3920   10.8450   41.8160 C   0  0  0  0  0  0  0  0  0  0  0  0
    3.4150   14.1730   43.1320 N   0  0  0  0  0  0  0  0  0  0  0  0
    2.9650   14.6680   41.9760 N   0  0  0  0  0  0  0  0  0  0  0  0
    3.3600   13.8630   40.9660 C   0  0  0  0  0  0  0  0  0  0  0  0
    6.0180    9.7730   41.2700 N   0  0  0  0  0  0  0  0  0  0  0  0
    7.2170    9.5740   41.4770 O   0  0  0  0  0  0  0  0  0  0  0  0
    5.3960    9.0000   40.5580 O   0  0  0  0  0  0  0  0  0  0  0  0
  2  1  2  0
  6  1  1  0
  3  2  1  0
  4  3  2  0
  7  3  1  0
  5  4  1  0
  9  4  1  0
  6  5  2  0
 10  6  1  0
  8  7  1  0
  9  8  2  0
 11 10  1  0
 12 10  2  0
M  CHG  2  10   1  11  -1
A    1
C6
A    2
C7
A    3
C8
A    4
C9
A    5
C4
A    6
C5
A    7
N1
A    8
N2
A    9
C3
A   10
N10
A   11
O11
A   12
O12
M  END
>  <Id>  (31) 
4LM0_5NI_A_900

>  <ChainId>  (31) 
A

>  <AsymId>  (31) 
C

>  <SeqNum>  (31) 
900

>  <Name>  (31) 
5-NITROINDAZOLE

>  <SystematicName>  (31) 
5-nitro-1H-indazole

>  <Synonyms>  (31) 


>  <Type>  (31) 
NON-POLYMER

>  <Formula>  (31) 
C7 H5 N3 O2

>  <ObservedFormula>  (31) 
C7 N3 O2

>  <MolecularWeight>  (31) 
163.133

>  <ModifiedDate>  (31) 
2011-06-04

>  <Parent>  (31) 


>  <OneLetterCode>  (31) 


>  <SubcomponentList>  (31) 


>  <AmbiguousFlag>  (31) 
N

>  <InsertionCode>  (31) 


>  <InstanceId>  (31) 
4LM0_5NI_A_900

>  <ChemCompId>  (31) 
5NI

>  <PdbId>  (31) 
4LM0

>  <ResidueNumber>  (31) 
900

>  <InChI>  (31) 
InChI=1S/C7H5N3O2/c11-10(12)6-1-2-7-5(3-6)4-8-9-7/h1-4H,(H,8,9)

>  <InChIKey>  (31) 
WSGURAYTCUVDQL-UHFFFAOYSA-N

>  <SMILES>  (31) 
c1cc2c(cc1[N+](=O)[O-])cn[nH]2

>  <MissingHeavyAtoms>  (31) 
0

>  <Model>  (31) 
1

>  <AltIds>  (31) 


>  <pKI>  (31) 
3.25

>  <ChemblID>  (31) 
-

>  <standardized_canonical_smiles>  (31) 
O=[N+]([O-])c1ccc2[nH]ncc2c1

$$$$
4MSN_2ZQ_A_900
     RDKit          3D

 13 14  0  0  0  0  0  0  0  0999 V2000
    3.8080  -27.7220  -34.9920 C   0  0  0  0  0  0  0  0  0  0  0  0
    4.2670  -28.7340  -34.1400 C   0  0  0  0  0  0  0  0  0  0  0  0
    3.9700  -27.8490  -36.3750 C   0  0  0  0  0  0  0  0  0  0  0  0
    4.8850  -29.8740  -34.6450 C   0  0  0  0  0  0  0  0  0  0  0  0
    4.5930  -28.9970  -36.8740 C   0  0  0  0  0  0  0  0  0  0  0  0
    5.0480  -30.0030  -36.0220 C   0  0  0  0  0  0  0  0  0  0  0  0
    3.0390  -26.4750  -33.1350 C   0  0  0  0  0  0  0  0  0  0  0  0
    3.4790  -27.4590  -32.2510 C   0  0  0  0  0  0  0  0  0  0  0  0
    3.2080  -26.6220  -34.4750 N   0  0  0  0  0  0  0  0  0  0  0  0
    4.0980  -28.6010  -32.7610 C   0  0  0  0  0  0  0  0  0  0  0  0
    3.5390  -26.8930  -37.2200 N   0  0  0  0  0  0  0  0  0  0  0  0
    2.8230  -27.1890  -38.1660 O   0  0  0  0  0  0  0  0  0  0  0  0
    3.8440  -25.7190  -37.0770 O   0  0  0  0  0  0  0  0  0  0  0  0
  2  1  1  0
  3  1  2  0
  9  1  1  0
  4  2  2  0
 10  2  1  0
  5  3  1  0
 11  3  1  0
  6  4  1  0
  6  5  2  0
  8  7  1  0
  9  7  2  0
 10  8  2  0
 12 11  2  0
 13 11  1  0
M  CHG  2  11   1  13  -1
A    1
C1
A    2
C2
A    3
C3
A    4
C4
A    5
C5
A    6
C6
A    7
C7
A    8
C8
A    9
N9
A   10
C10
A   11
N11
A   12
O12
A   13
O13
M  END
>  <Id>  (32) 
4MSN_2ZQ_A_900

>  <ChainId>  (32) 
A

>  <AsymId>  (32) 
C

>  <SeqNum>  (32) 
900

>  <Name>  (32) 
8-nitroquinoline

>  <SystematicName>  (32) 
8-nitroquinoline

>  <Synonyms>  (32) 


>  <Type>  (32) 
NON-POLYMER

>  <Formula>  (32) 
C9 H6 N2 O2

>  <ObservedFormula>  (32) 
C9 N2 O2

>  <MolecularWeight>  (32) 
174.156

>  <ModifiedDate>  (32) 
2014-05-09

>  <Parent>  (32) 


>  <OneLetterCode>  (32) 


>  <SubcomponentList>  (32) 


>  <AmbiguousFlag>  (32) 
N

>  <InsertionCode>  (32) 


>  <InstanceId>  (32) 
4MSN_2ZQ_A_900

>  <ChemCompId>  (32) 
2ZQ

>  <PdbId>  (32) 
4MSN

>  <ResidueNumber>  (32) 
900

>  <InChI>  (32) 
InChI=1S/C9H6N2O2/c12-11(13)8-5-1-3-7-4-2-6-10-9(7)8/h1-6H

>  <InChIKey>  (32) 
OQHHSGRZCKGLCY-UHFFFAOYSA-N

>  <SMILES>  (32) 
c1cc2cccnc2c(c1)[N+](=O)[O-]

>  <MissingHeavyAtoms>  (32) 
0

>  <Model>  (32) 
1

>  <AltIds>  (32) 


>  <pKI>  (32) 
4.03

>  <ChemblID>  (32) 
-

>  <standardized_canonical_smiles>  (32) 
O=[N+]([O-])c1cccc2cccnc12

$$$$
4LM1_7ZE_A_900
     RDKit          3D

 13 14  0  0  0  0  0  0  0  0999 V2000
    4.3520   13.2130   45.0630 C   0  0  0  0  0  0  0  0  0  0  0  0
    3.7000   14.4450   45.0080 C   0  0  0  0  0  0  0  0  0  0  0  0
    4.2560   13.0440   42.6450 C   0  0  0  0  0  0  0  0  0  0  0  0
    4.5200   12.3670   41.4500 C   0  0  0  0  0  0  0  0  0  0  0  0
    5.2630   11.3310   43.9720 N   0  0  0  0  0  0  0  0  0  0  0  0
    5.8000   11.0470   45.0360 O   0  0  0  0  0  0  0  0  0  0  0  0
    4.1170   12.9260   40.2430 C   0  0  0  0  0  0  0  0  0  0  0  0
    3.4700   14.1620   40.2550 C   0  0  0  0  0  0  0  0  0  0  0  0
    4.6320   12.5150   43.8840 C   0  0  0  0  0  0  0  0  0  0  0  0
    3.6010   14.2810   42.5970 C   0  0  0  0  0  0  0  0  0  0  0  0
    3.3240   14.9750   43.7770 C   0  0  0  0  0  0  0  0  0  0  0  0
    5.3090   10.5380   43.0340 O   0  0  0  0  0  0  0  0  0  0  0  0
    3.2270   14.8210   41.4130 N   0  0  0  0  0  0  0  0  0  0  0  0
  5  6  1  0
  2  1  2  0
 11  2  1  0
  9  1  1  0
 13 10  1  0
  9  5  1  0
  7  4  2  0
 12  5  2  0
  3  9  2  0
 10  3  1  0
  7  8  1  0
  8 13  2  0
  4  3  1  0
 10 11  2  0
M  CHG  2   5   1   6  -1
A    1
C5
A    2
C6
A    3
C13
A    4
C12
A    5
N2
A    6
O3
A    7
C11
A    8
C10
A    9
C4
A   10
C8
A   11
C7
A   12
O1
A   13
N9
M  END
>  <InstanceId>  (33) 
4LM1_7ZE

>  <ChemCompId>  (33) 
7ZE

>  <PdbId>  (33) 
4LM1

>  <ChainId>  (33) 
A

>  <ResidueNumber>  (33) 
900

>  <InsertionCode>  (33) 
null

>  <Model>  (33) 
1

>  <AltIds>  (33) 


>  <MissingHeavyAtoms>  (33) 
0

>  <ObservedFormula>  (33) 
C9 N2 O2

>  <AsymId>  (33) 
C

>  <SeqNum>  (33) 
900

>  <Name>  (33) 
5-nitroquinoline

>  <SystematicName>  (33) 
5-nitroquinoline

>  <Synonyms>  (33) 


>  <Type>  (33) 
NON-POLYMER

>  <Formula>  (33) 
C9 H6 N2 O2

>  <MolecularWeight>  (33) 
174.156

>  <ModifiedDate>  (33) 
2014-02-21

>  <Parent>  (33) 


>  <OneLetterCode>  (33) 


>  <SubcomponentList>  (33) 


>  <AmbiguousFlag>  (33) 
N

>  <InChI>  (33) 
InChI=1S/C9H6N2O2/c12-11(13)9-5-1-4-8-7(9)3-2-6-10-8/h1-6H

>  <InChIKey>  (33) 
NDDZXHOCOKCNBM-UHFFFAOYSA-N

>  <SMILES>  (33) 
c1cc2c(cccn2)c(c1)[N+](=O)[O-]

>  <pKI>  (33) 
3.23

>  <ChemblID>  (33) 
-

>  <standardized_canonical_smiles>  (33) 
O=[N+]([O-])c1cccc2ncccc12

$$$$
2WEY_EV1_B_1771
     RDKit          3D

 25 27  0  0  0  0  0  0  0  0999 V2000
  -12.7970   -5.1810   28.2950 C   0  0  0  0  0  0  0  0  0  0  0  0
  -12.9020   -5.3210   26.8730 O   0  0  0  0  0  0  0  0  0  0  0  0
  -11.7840   -5.4120   26.0710 C   0  0  0  0  0  0  0  0  0  0  0  0
  -11.1110   -6.7260   25.8100 C   0  0  0  0  0  0  0  0  0  0  0  0
  -11.6000   -7.8930   26.3670 O   0  0  0  0  0  0  0  0  0  0  0  0
  -10.7830   -9.0410   26.6290 C   0  0  0  0  0  0  0  0  0  0  0  0
   -9.9810   -6.7400   24.9870 C   0  0  0  0  0  0  0  0  0  0  0  0
   -9.4970   -5.5580   24.4270 C   0  0  0  0  0  0  0  0  0  0  0  0
  -11.2580   -4.2600   25.4810 C   0  0  0  0  0  0  0  0  0  0  0  0
  -10.1250   -4.3340   24.6630 C   0  0  0  0  0  0  0  0  0  0  0  0
   -9.5660   -3.0730   24.0350 C   0  0  0  0  0  0  0  0  0  0  0  0
  -10.1170   -2.8710   22.6360 C   0  0  0  0  0  0  0  0  0  0  0  0
  -11.3140   -2.2560   22.4660 N   0  0  0  0  0  0  0  0  0  0  0  0
  -11.8610   -2.0400   21.2500 C   0  0  0  0  0  0  0  0  0  0  0  0
  -11.2460   -2.4290   20.0580 C   0  0  0  0  0  0  0  0  0  0  0  0
  -10.0130   -3.0680   20.0980 C   0  0  0  0  0  0  0  0  0  0  0  0
   -9.3750   -3.3220   21.4200 C   0  0  0  0  0  0  0  0  0  0  0  0
   -8.1340   -3.9610   21.4840 C   0  0  0  0  0  0  0  0  0  0  0  0
   -7.4960   -4.3650   20.3100 C   0  0  0  0  0  0  0  0  0  0  0  0
   -6.2760   -4.9940   20.3330 O   0  0  0  0  0  0  0  0  0  0  0  0
   -5.6520   -5.3940   21.5530 C   0  0  0  0  0  0  0  0  0  0  0  0
   -8.1410   -4.1100   18.9940 C   0  0  0  0  0  0  0  0  0  0  0  0
   -9.3780   -3.4660   18.9280 C   0  0  0  0  0  0  0  0  0  0  0  0
   -7.4950   -4.5100   17.8520 O   0  0  0  0  0  0  0  0  0  0  0  0
   -8.1910   -5.1800   16.8000 C   0  0  0  0  0  0  0  0  0  0  0  0
  2  1  1  0
  3  2  1  0
  4  3  2  0
  9  3  1  0
  5  4  1  0
  7  4  1  0
  6  5  1  0
  8  7  2  0
 10  8  1  0
 10  9  2  0
 11 10  1  0
 12 11  1  0
 13 12  2  0
 17 12  1  0
 14 13  1  0
 15 14  2  0
 16 15  1  0
 17 16  2  0
 23 16  1  0
 18 17  1  0
 19 18  2  0
 20 19  1  0
 22 19  1  0
 21 20  1  0
 23 22  2  0
 24 22  1  0
 25 24  1  0
A    1
C25
A    2
O24
A    3
C16
A    4
C15
A    5
O22
A    6
C23
A    7
C14
A    8
C13
A    9
C17
A   10
C12
A   11
C11
A   12
C10
A   13
N9
A   14
C8
A   15
C7
A   16
C2
A   17
C3
A   18
C4
A   19
C5
A   20
O20
A   21
C21
A   22
C6
A   23
C1
A   24
O18
A   25
C19
M  END
>  <Id>  (34) 
2WEY_EV1_B_1771

>  <ChainId>  (34) 
B

>  <AsymId>  (34) 
F

>  <SeqNum>  (34) 
1771

>  <Name>  (34) 
1-(3,4-DIMETHOXYBENZYL)-6,7-DIMETHOXYISOQUINOLINE

>  <SystematicName>  (34) 
1-[(3,4-dimethoxyphenyl)methyl]-6,7-dimethoxy-isoquinoline

>  <Synonyms>  (34) 


>  <Type>  (34) 
non-polymer

>  <Formula>  (34) 
C20 H21 N O4

>  <ObservedFormula>  (34) 
C20 N O4

>  <MolecularWeight>  (34) 
339.385

>  <ModifiedDate>  (34) 
2011-06-04

>  <Parent>  (34) 


>  <OneLetterCode>  (34) 


>  <SubcomponentList>  (34) 


>  <AmbiguousFlag>  (34) 
N

>  <InsertionCode>  (34) 


>  <InstanceId>  (34) 
2WEY_EV1_B_1771

>  <ChemCompId>  (34) 
EV1

>  <PdbId>  (34) 
2WEY

>  <ResidueNumber>  (34) 
1771

>  <InChI>  (34) 
InChI=1S/C20H21NO4/c1-22-17-6-5-13(10-18(17)23-2)9-16-15-12-20(25-4)19(24-3)11-14(15)7-8-21-16/h5-8,10-12H,9H2,1-4H3

>  <InChIKey>  (34) 
XQYZDYMELSJDRZ-UHFFFAOYSA-N

>  <SMILES>  (34) 
COc1ccc(cc1OC)Cc2c3cc(c(cc3ccn2)OC)OC

>  <MissingHeavyAtoms>  (34) 
0

>  <Model>  (34) 
1

>  <AltIds>  (34) 


>  <pKI>  (34) 
7.77

>  <ChemblID>  (34) 
-

>  <standardized_canonical_smiles>  (34) 
COc1ccc(Cc2nccc3cc(OC)c(OC)cc23)cc1OC

$$$$
