4ZN7_DES_B_600
     RDKit          3D

 20 21  0  0  0  0  0  0  0  0999 V2000
    5.3340    1.1460   -6.3990 C   0  0  0  0  0  0  0  0  0  0  0  0
    5.9720    2.1840   -5.5040 C   0  0  0  0  0  0  0  0  0  0  0  0
    5.1040    3.4280   -5.4450 C   0  0  0  0  0  0  0  0  0  0  0  0
    3.6190    3.2420   -5.2090 C   0  0  0  0  0  0  0  0  0  0  0  0
    3.1160    3.0570   -3.9290 C   0  0  0  0  0  0  0  0  0  0  0  0
    1.7500    2.8740   -3.7550 C   0  0  0  0  0  0  0  0  0  0  0  0
    0.8960    2.8720   -4.8520 C   0  0  0  0  0  0  0  0  0  0  0  0
   -0.4880    2.6920   -4.6790 O   0  0  0  0  0  0  0  0  0  0  0  0
    1.4000    3.0560   -6.1290 C   0  0  0  0  0  0  0  0  0  0  0  0
    2.7600    3.2370   -6.3070 C   0  0  0  0  0  0  0  0  0  0  0  0
    5.6290    4.6720   -5.5920 C   0  0  0  0  0  0  0  0  0  0  0  0
    7.1100    4.8860   -5.8730 C   0  0  0  0  0  0  0  0  0  0  0  0
    7.5640    4.5720   -7.1480 C   0  0  0  0  0  0  0  0  0  0  0  0
    8.8910    4.7450   -7.4990 C   0  0  0  0  0  0  0  0  0  0  0  0
    9.7790    5.2590   -6.5740 C   0  0  0  0  0  0  0  0  0  0  0  0
   11.1290    5.4340   -6.9360 O   0  0  0  0  0  0  0  0  0  0  0  0
    9.3360    5.5880   -5.2920 C   0  0  0  0  0  0  0  0  0  0  0  0
    8.0010    5.4090   -4.9430 C   0  0  0  0  0  0  0  0  0  0  0  0
    4.7030    5.8710   -5.5230 C   0  0  0  0  0  0  0  0  0  0  0  0
    4.8470    6.5820   -4.1950 C   0  0  0  0  0  0  0  0  0  0  0  0
  2  1  1  0
  3  2  1  0
  4  3  1  0
 11  3  2  0
  5  4  2  0
 10  4  1  0
  6  5  1  0
  7  6  2  0
  8  7  1  0
  9  7  1  0
 10  9  2  0
 12 11  1  0
 19 11  1  0
 13 12  2  0
 18 12  1  0
 14 13  1  0
 15 14  2  0
 16 15  1  0
 17 15  1  0
 18 17  2  0
 20 19  1  0
A    1
CP9
A    2
CP8
A    3
CP7
A    4
CP6
A    5
CP1
A    6
CP2
A    7
CP3
A    8
OP3
A    9
CP4
A   10
CP5
A   11
C7
A   12
C6
A   13
C5
A   14
C4
A   15
C3
A   16
O3
A   17
C2
A   18
C1
A   19
C8
A   20
C9
M  END
>  <Id>  (1) 
4ZN7_DES_B_600

>  <ChainId>  (1) 
B

>  <AsymId>  (1) 
F

>  <SeqNum>  (1) 
600

>  <Name>  (1) 
DIETHYLSTILBESTROL

>  <SystematicName>  (1) 
4-[(E)-4-(4-hydroxyphenyl)hex-3-en-3-yl]phenol

>  <Synonyms>  (1) 


>  <Type>  (1) 
NON-POLYMER

>  <Formula>  (1) 
C18 H20 O2

>  <ObservedFormula>  (1) 
C18 O2

>  <MolecularWeight>  (1) 
268.35

>  <ModifiedDate>  (1) 
2011-06-04

>  <Parent>  (1) 


>  <OneLetterCode>  (1) 


>  <SubcomponentList>  (1) 


>  <AmbiguousFlag>  (1) 
N

>  <InsertionCode>  (1) 


>  <InstanceId>  (1) 
4ZN7_DES_B_600

>  <ChemCompId>  (1) 
DES

>  <PdbId>  (1) 
4ZN7

>  <ResidueNumber>  (1) 
600

>  <InChI>  (1) 
InChI=1S/C18H20O2/c1-3-17(13-5-9-15(19)10-6-13)18(4-2)14-7-11-16(20)12-8-14/h5-12,19-20H,3-4H2,1-2H3/b18-17+

>  <InChIKey>  (1) 
RGLYKWWBQGJZGM-ISLYRVAYSA-N

>  <SMILES>  (1) 
CC/C(=C(/CC)\c1ccc(cc1)O)/c2ccc(cc2)O

>  <MissingHeavyAtoms>  (1) 
0

>  <Model>  (1) 
1

>  <AltIds>  (1) 


>  <pKI>  (1) 
9.52

>  <ChemblID>  (1) 
CHEMBL411

>  <standardized_canonical_smiles>  (1) 
CC/C(=C(/CC)c1ccc(O)cc1)c1ccc(O)cc1

$$$$
3ERD_DES_B_800
     RDKit          3D

 20 21  0  0  0  0  0  0  0  0999 V2000
   -4.5960   -6.0540   21.9670 C   0  0  0  0  0  0  0  0  0  0  0  0
   -3.2130   -6.3360   21.5040 C   0  0  0  0  0  0  0  0  0  0  0  0
   -2.8860   -7.8290   21.3880 C   0  0  0  0  0  0  0  0  0  0  0  0
   -3.7260   -8.5450   20.3530 C   0  0  0  0  0  0  0  0  0  0  0  0
   -3.3940   -8.4960   18.9940 C   0  0  0  0  0  0  0  0  0  0  0  0
   -4.2130   -9.1070   18.0390 C   0  0  0  0  0  0  0  0  0  0  0  0
   -5.3670   -9.7750   18.4430 C   0  0  0  0  0  0  0  0  0  0  0  0
   -6.2310  -10.3610   17.5270 O   0  0  0  0  0  0  0  0  0  0  0  0
   -5.7120   -9.8410   19.7840 C   0  0  0  0  0  0  0  0  0  0  0  0
   -4.8820   -9.2250   20.7290 C   0  0  0  0  0  0  0  0  0  0  0  0
   -1.9930   -8.4600   22.1250 C   0  0  0  0  0  0  0  0  0  0  0  0
   -1.3350   -7.8320   23.3230 C   0  0  0  0  0  0  0  0  0  0  0  0
   -2.0520   -7.6440   24.5100 C   0  0  0  0  0  0  0  0  0  0  0  0
   -1.4470   -7.0800   25.6380 C   0  0  0  0  0  0  0  0  0  0  0  0
   -0.1090   -6.6840   25.5820 C   0  0  0  0  0  0  0  0  0  0  0  0
    0.5280   -6.1110   26.6790 O   0  0  0  0  0  0  0  0  0  0  0  0
    0.6400   -6.8600   24.4020 C   0  0  0  0  0  0  0  0  0  0  0  0
    0.0100   -7.4290   23.2790 C   0  0  0  0  0  0  0  0  0  0  0  0
   -1.5670   -9.8990   21.8960 C   0  0  0  0  0  0  0  0  0  0  0  0
   -0.3930  -10.0290   20.9740 C   0  0  0  0  0  0  0  0  0  0  0  0
  2  1  1  0
  3  2  1  0
  4  3  1  0
 11  3  2  0
  5  4  2  0
 10  4  1  0
  6  5  1  0
  7  6  2  0
  8  7  1  0
  9  7  1  0
 10  9  2  0
 12 11  1  0
 19 11  1  0
 13 12  2  0
 18 12  1  0
 14 13  1  0
 15 14  2  0
 16 15  1  0
 17 15  1  0
 18 17  2  0
 20 19  1  0
A    1
CP9
A    2
CP8
A    3
CP7
A    4
CP6
A    5
CP1
A    6
CP2
A    7
CP3
A    8
OP3
A    9
CP4
A   10
CP5
A   11
C7
A   12
C6
A   13
C5
A   14
C4
A   15
C3
A   16
O3
A   17
C2
A   18
C1
A   19
C8
A   20
C9
M  END
>  <Id>  (2) 
3ERD_DES_B_800

>  <ChainId>  (2) 
B

>  <AsymId>  (2) 
G

>  <SeqNum>  (2) 
800

>  <Name>  (2) 
DIETHYLSTILBESTROL

>  <SystematicName>  (2) 
4-[(E)-4-(4-hydroxyphenyl)hex-3-en-3-yl]phenol

>  <Synonyms>  (2) 


>  <Type>  (2) 
NON-POLYMER

>  <Formula>  (2) 
C18 H20 O2

>  <ObservedFormula>  (2) 
C18 O2

>  <MolecularWeight>  (2) 
268.35

>  <ModifiedDate>  (2) 
2011-06-04

>  <Parent>  (2) 


>  <OneLetterCode>  (2) 


>  <SubcomponentList>  (2) 


>  <AmbiguousFlag>  (2) 
N

>  <InsertionCode>  (2) 


>  <InstanceId>  (2) 
3ERD_DES_B_800

>  <ChemCompId>  (2) 
DES

>  <PdbId>  (2) 
3ERD

>  <ResidueNumber>  (2) 
800

>  <InChI>  (2) 
InChI=1S/C18H20O2/c1-3-17(13-5-9-15(19)10-6-13)18(4-2)14-7-11-16(20)12-8-14/h5-12,19-20H,3-4H2,1-2H3/b18-17+

>  <InChIKey>  (2) 
RGLYKWWBQGJZGM-ISLYRVAYSA-N

>  <SMILES>  (2) 
CC/C(=C(/CC)\c1ccc(cc1)O)/c2ccc(cc2)O

>  <MissingHeavyAtoms>  (2) 
0

>  <Model>  (2) 
1

>  <AltIds>  (2) 


>  <pKI>  (2) 
9.52

>  <ChemblID>  (2) 
CHEMBL411

>  <standardized_canonical_smiles>  (2) 
CC/C(=C(/CC)c1ccc(O)cc1)c1ccc(O)cc1

$$$$
3HM1_J3Z_B_1
     RDKit          3D

 20 23  0  0  0  0  0  0  0  0999 V2000
   -3.5330   -5.2470   22.0210 C   0  0  0  0  0  0  0  0  0  0  0  0
   -5.7870   -4.7330   20.8670 C   0  0  0  0  0  0  0  0  0  0  0  0
   -4.9760   -4.4050   19.6250 C   0  0  0  0  0  0  0  0  0  0  0  0
   -4.6050   -2.9270   19.5790 C   0  0  0  0  0  0  0  0  0  0  0  0
   -6.7590   -4.7660   18.0050 O   0  0  0  0  0  0  0  0  0  0  0  0
   -0.4430   -4.4160   26.7000 O   0  0  0  0  0  0  0  0  0  0  0  0
   -5.5660   -4.8300   18.3050 C   0  0  0  0  0  0  0  0  0  0  0  0
   -4.4920   -5.2530   17.3330 C   0  0  0  0  0  0  0  0  0  0  0  0
   -3.2370   -5.3180   18.2120 C   0  0  0  0  0  0  0  0  0  0  0  0
   -3.7520   -5.2860   19.6450 C   0  0  0  0  0  0  0  0  0  0  0  0
   -2.8070   -4.8400   20.7500 C   0  0  0  0  0  0  0  0  0  0  0  0
   -4.9080   -4.5560   22.1110 C   0  0  0  0  0  0  0  0  0  0  0  0
   -1.4500   -5.5170   20.6460 C   0  0  0  0  0  0  0  0  0  0  0  0
   -0.5680   -5.3970   21.8890 C   0  0  0  0  0  0  0  0  0  0  0  0
   -1.3130   -5.1020   23.1780 C   0  0  0  0  0  0  0  0  0  0  0  0
   -2.7000   -5.0230   23.2360 C   0  0  0  0  0  0  0  0  0  0  0  0
   -0.5510   -4.8900   24.3420 C   0  0  0  0  0  0  0  0  0  0  0  0
   -1.1770   -4.6190   25.5550 C   0  0  0  0  0  0  0  0  0  0  0  0
   -2.5700   -4.5430   25.6060 C   0  0  0  0  0  0  0  0  0  0  0  0
   -3.3260   -4.7470   24.4560 C   0  0  0  0  0  0  0  0  0  0  0  0
 11  1  1  0
 12  1  1  0
 16  1  1  0
  3  2  1  0
 12  2  1  0
  4  3  1  0
  7  3  1  0
 10  3  1  0
  7  5  2  0
 18  6  1  0
  8  7  1  0
  9  8  1  0
 10  9  1  0
 11 10  1  0
 13 11  1  0
 14 13  1  0
 15 14  1  0
 16 15  2  0
 17 15  1  0
 20 16  1  0
 18 17  2  0
 19 18  1  0
 20 19  2  0
A    1
C2
A    2
C4
A    3
C5
A    4
C6
A    5
O1
A    6
O3
A    7
C7
A    8
C8
A    9
C9
A   10
C10
A   11
C12
A   12
C3
A   13
C14
A   14
C15
A   15
C16
A   16
C21
A   17
C17
A   18
C18
A   19
C19
A   20
C20
M  END
>  <Id>  (3) 
3HM1_J3Z_B_1

>  <ChainId>  (3) 
B

>  <AsymId>  (3) 
F

>  <SeqNum>  (3) 
1

>  <Name>  (3) 
(9beta,13alpha)-3-hydroxyestra-1,3,5(10)-trien-17-one

>  <SystematicName>  (3) 
(8R,9S,13S,14S)-3-hydroxy-13-methyl-7,8,9,11,12,14,15,16-octahydro-6H-cyclopenta[a]phenanthren-17-one

>  <Synonyms>  (3) 
Estrone

>  <Type>  (3) 
NON-POLYMER

>  <Formula>  (3) 
C18 H22 O2

>  <ObservedFormula>  (3) 
C18 O2

>  <MolecularWeight>  (3) 
270.366

>  <ModifiedDate>  (3) 
2011-06-04

>  <Parent>  (3) 


>  <OneLetterCode>  (3) 


>  <SubcomponentList>  (3) 


>  <AmbiguousFlag>  (3) 
N

>  <InsertionCode>  (3) 


>  <InstanceId>  (3) 
3HM1_J3Z_B_1

>  <ChemCompId>  (3) 
J3Z

>  <PdbId>  (3) 
3HM1

>  <ResidueNumber>  (3) 
1

>  <InChI>  (3) 
InChI=1S/C18H22O2/c1-18-9-8-14-13-5-3-12(19)10-11(13)2-4-15(14)16(18)6-7-17(18)20/h3,5,10,14-16,19H,2,4,6-9H2,1H3/t14-,15-,16+,18+/m1/s1

>  <InChIKey>  (3) 
DNXHEGUUPJUMQT-CBZIJGRNSA-N

>  <SMILES>  (3) 
C[C@]12CC[C@@H]3c4ccc(cc4CC[C@H]3[C@@H]1CCC2=O)O

>  <MissingHeavyAtoms>  (3) 
0

>  <Model>  (3) 
1

>  <AltIds>  (3) 


>  <pKI>  (3) 
8.66

>  <ChemblID>  (3) 
CHEMBL1405

>  <standardized_canonical_smiles>  (3) 
C[C@]12CC[C@@H]3c4ccc(O)cc4CC[C@H]3[C@@H]1CCC2=O

$$$$
1GWQ_ZTW_B_600
     RDKit          3D

 17 19  0  0  0  0  0  0  0  0999 V2000
    8.2690   -3.2160    3.5110 C   0  0  0  0  0  0  0  0  0  0  0  0
    6.9150   -3.2390    3.8160 C   0  0  0  0  0  0  0  0  0  0  0  0
    6.1830   -4.4180    3.6410 C   0  0  0  0  0  0  0  0  0  0  0  0
    4.8320   -4.3880    3.9600 O   0  0  0  0  0  0  0  0  0  0  0  0
    6.7970   -5.5870    3.1680 C   0  0  0  0  0  0  0  0  0  0  0  0
    8.1350   -5.5320    2.8790 C   0  0  0  0  0  0  0  0  0  0  0  0
    9.1340   -6.7430    2.2990 S   0  0  0  0  0  0  0  0  0  0  0  0
   10.5820   -5.8480    2.2280 C   0  0  0  0  0  0  0  0  0  0  0  0
   11.8100   -6.5410    1.7550 C   0  0  0  0  0  0  0  0  0  0  0  0
   11.6530   -7.5360    0.7960 C   0  0  0  0  0  0  0  0  0  0  0  0
   12.7550   -8.2280    0.3130 C   0  0  0  0  0  0  0  0  0  0  0  0
   14.0170   -7.9250    0.8120 C   0  0  0  0  0  0  0  0  0  0  0  0
   15.1530   -8.5630    0.3670 O   0  0  0  0  0  0  0  0  0  0  0  0
   14.1730   -6.9420    1.7710 C   0  0  0  0  0  0  0  0  0  0  0  0
   13.0640   -6.2550    2.2450 C   0  0  0  0  0  0  0  0  0  0  0  0
    8.8940   -4.3420    3.0480 C   0  0  0  0  0  0  0  0  0  0  0  0
   10.2960   -4.5680    2.6670 C   0  0  0  0  0  0  0  0  0  0  0  0
  2  1  2  0
 16  1  1  0
  3  2  1  0
  4  3  1  0
  5  3  2  0
  6  5  1  0
  7  6  1  0
 16  6  2  0
  8  7  1  0
  9  8  1  0
 17  8  2  0
 10  9  2  0
 15  9  1  0
 11 10  1  0
 12 11  2  0
 13 12  1  0
 14 12  1  0
 15 14  2  0
 17 16  1  0
A    1
C1
A    2
C2
A    3
C3
A    4
O3
A    5
C4
A    6
C5
A    7
S6
A    8
C7
A    9
C8
A   10
C9
A   11
C10
A   12
C11
A   13
O11
A   14
C12
A   15
C13
A   16
C14
A   17
C15
M  END
>  <Id>  (4) 
1GWQ_ZTW_B_600

>  <ChainId>  (4) 
B

>  <AsymId>  (4) 
F

>  <SeqNum>  (4) 
600

>  <Name>  (4) 
RALOXIFENE CORE

>  <SystematicName>  (4) 
2-(4-hydroxyphenyl)-1-benzothiophen-6-ol

>  <Synonyms>  (4) 


>  <Type>  (4) 
NON-POLYMER

>  <Formula>  (4) 
C14 H10 O2 S

>  <ObservedFormula>  (4) 
C14 S O2

>  <MolecularWeight>  (4) 
242.293

>  <ModifiedDate>  (4) 
2011-06-04

>  <Parent>  (4) 


>  <OneLetterCode>  (4) 


>  <SubcomponentList>  (4) 


>  <AmbiguousFlag>  (4) 
N

>  <InsertionCode>  (4) 


>  <InstanceId>  (4) 
1GWQ_ZTW_B_600

>  <ChemCompId>  (4) 
ZTW

>  <PdbId>  (4) 
1GWQ

>  <ResidueNumber>  (4) 
600

>  <InChI>  (4) 
InChI=1S/C14H10O2S/c15-11-4-1-9(2-5-11)13-7-10-3-6-12(16)8-14(10)17-13/h1-8,15-16H

>  <InChIKey>  (4) 
MDGWZLQPNOETLH-UHFFFAOYSA-N

>  <SMILES>  (4) 
c1cc(ccc1c2cc3ccc(cc3s2)O)O

>  <MissingHeavyAtoms>  (4) 
0

>  <Model>  (4) 
1

>  <AltIds>  (4) 


>  <pKI>  (4) 
8.39

>  <ChemblID>  (4) 
CHEMBL431698

>  <standardized_canonical_smiles>  (4) 
Oc1ccc(-c2cc3ccc(O)cc3s2)cc1

$$$$
4PP6_STL_B_601
     RDKit          3D

 17 18  0  0  0  0  0  0  0  0999 V2000
   11.1900   24.9510   33.9600 C   0  0  0  0  0  0  0  0  0  0  0  0
   10.5610   24.6850   35.1770 C   0  0  0  0  0  0  0  0  0  0  0  0
   11.3340   24.4530   36.3090 C   0  0  0  0  0  0  0  0  0  0  0  0
   12.7270   24.4810   36.2280 C   0  0  0  0  0  0  0  0  0  0  0  0
   13.3470   24.7620   35.0100 C   0  0  0  0  0  0  0  0  0  0  0  0
   12.5760   24.9890   33.8730 C   0  0  0  0  0  0  0  0  0  0  0  0
   14.7380   24.7620   34.9430 C   0  0  0  0  0  0  0  0  0  0  0  0
   15.4820   25.0710   33.6340 C   0  0  0  0  0  0  0  0  0  0  0  0
   16.8790   25.0660   33.6040 C   0  0  0  0  0  0  0  0  0  0  0  0
   17.5520   25.3870   32.4270 C   0  0  0  0  0  0  0  0  0  0  0  0
   18.9420   25.3850   32.3970 C   0  0  0  0  0  0  0  0  0  0  0  0
   19.6670   25.0620   33.5420 C   0  0  0  0  0  0  0  0  0  0  0  0
   19.0010   24.7470   34.7200 C   0  0  0  0  0  0  0  0  0  0  0  0
   17.6100   24.7520   34.7530 C   0  0  0  0  0  0  0  0  0  0  0  0
   21.0300   25.0570   33.5190 O   0  0  0  0  0  0  0  0  0  0  0  0
   10.7290   24.1920   37.5010 O   0  0  0  0  0  0  0  0  0  0  0  0
   10.4530   25.1750   32.8320 O   0  0  0  0  0  0  0  0  0  0  0  0
  2  1  2  0
  6  1  1  0
 17  1  1  0
  3  2  1  0
  4  3  2  0
 16  3  1  0
  5  4  1  0
  6  5  2  0
  7  5  1  0
  8  7  2  0
  9  8  1  0
 10  9  2  0
 14  9  1  0
 11 10  1  0
 12 11  2  0
 13 12  1  0
 15 12  1  0
 14 13  2  0
A    1
C1
A    2
C2
A    3
C3
A    4
C4
A    5
C5
A    6
C6
A    7
C7
A    8
C8
A    9
C9
A   10
C10
A   11
C11
A   12
C12
A   13
C13
A   14
C14
A   15
O1
A   16
O2
A   17
O3
M  END
>  <Id>  (5) 
4PP6_STL_B_601

>  <ChainId>  (5) 
B

>  <AsymId>  (5) 
F

>  <SeqNum>  (5) 
601

>  <Name>  (5) 
RESVERATROL

>  <SystematicName>  (5) 
5-[(E)-2-(4-hydroxyphenyl)ethenyl]benzene-1,3-diol

>  <Synonyms>  (5) 


>  <Type>  (5) 
NON-POLYMER

>  <Formula>  (5) 
C14 H12 O3

>  <ObservedFormula>  (5) 
C14 O3

>  <MolecularWeight>  (5) 
228.243

>  <ModifiedDate>  (5) 
2011-06-04

>  <Parent>  (5) 


>  <OneLetterCode>  (5) 


>  <SubcomponentList>  (5) 


>  <AmbiguousFlag>  (5) 
N

>  <InsertionCode>  (5) 


>  <InstanceId>  (5) 
4PP6_STL_B_601

>  <ChemCompId>  (5) 
STL

>  <PdbId>  (5) 
4PP6

>  <ResidueNumber>  (5) 
601

>  <InChI>  (5) 
InChI=1S/C14H12O3/c15-12-5-3-10(4-6-12)1-2-11-7-13(16)9-14(17)8-11/h1-9,15-17H/b2-1+

>  <InChIKey>  (5) 
LUKBXSAWLPMMSZ-OWOJBTEDSA-N

>  <SMILES>  (5) 
c1cc(ccc1\C=C\c2cc(cc(c2)O)O)O

>  <MissingHeavyAtoms>  (5) 
0

>  <Model>  (5) 
1

>  <AltIds>  (5) 


>  <pKI>  (5) 
6.11

>  <ChemblID>  (5) 
CHEMBL165

>  <standardized_canonical_smiles>  (5) 
Oc1ccc(/C=C/c2cc(O)cc(O)c2)cc1

$$$$
2I0J_I0G_D_1
     RDKit          3D

 21 24  0  0  0  0  0  0  0  0999 V2000
   67.5230  123.1210   10.8810 C   0  0  0  0  0  0  0  0  0  0  0  0
   66.6960  122.1560   11.7060 C   0  0  0  0  0  0  0  0  0  0  0  0
   67.2480  121.6600   12.9000 C   0  0  0  0  0  0  0  0  0  0  0  0
   66.5170  120.7400   13.7080 C   0  0  0  0  0  0  0  0  0  0  0  0
   65.2170  120.3440   13.2950 C   0  0  0  0  0  0  0  0  0  0  0  0
   63.7240  122.7150    7.7710 C   0  0  0  0  0  0  0  0  0  0  0  0
   65.2020  123.2160    5.4470 C   0  0  0  0  0  0  0  0  0  0  0  0
   65.8390  122.9670    6.6460 C   0  0  0  0  0  0  0  0  0  0  0  0
   66.6700  125.4240   11.1880 C   0  0  0  0  0  0  0  0  0  0  0  0
   65.8630  124.7180   10.0800 C   0  0  0  0  0  0  0  0  0  0  0  0
   66.7640  123.5410    9.5890 C   0  0  0  0  0  0  0  0  0  0  0  0
   67.0800  120.2270   14.8880 O   0  0  0  0  0  0  0  0  0  0  0  0
   64.6930  120.8540   12.1100 C   0  0  0  0  0  0  0  0  0  0  0  0
   65.4320  121.7580   11.3120 C   0  0  0  0  0  0  0  0  0  0  0  0
   64.8600  122.2080   10.1590 O   0  0  0  0  0  0  0  0  0  0  0  0
   65.8460  122.4080    9.1310 C   0  0  0  0  0  0  0  0  0  0  0  0
   65.1030  122.7140    7.8150 C   0  0  0  0  0  0  0  0  0  0  0  0
   63.0830  122.9620    6.5820 C   0  0  0  0  0  0  0  0  0  0  0  0
   63.8190  123.2160    5.4090 C   0  0  0  0  0  0  0  0  0  0  0  0
   63.1680  123.4680    4.2250 O   0  0  0  0  0  0  0  0  0  0  0  0
   67.7350  124.4030   11.6910 C   0  0  0  0  0  0  0  0  0  0  0  0
  2  1  1  0
 11  1  1  0
 21  1  1  0
  3  2  2  0
 14  2  1  0
  4  3  1  0
  5  4  2  0
 12  4  1  0
 13  5  1  0
 17  6  2  0
 18  6  1  0
  8  7  2  0
 19  7  1  0
 17  8  1  0
 10  9  1  0
 21  9  1  0
 11 10  1  0
 16 11  1  0
 14 13  2  0
 15 14  1  0
 16 15  1  0
 17 16  1  0
 19 18  2  0
 20 19  1  0
A    1
C4
A    2
C6
A    3
C7
A    4
C8
A    5
C10
A    6
C17
A    7
C21
A    8
C22
A    9
C24
A   10
C1
A   11
C2
A   12
O9
A   13
C11
A   14
C12
A   15
O13
A   16
C14
A   17
C16
A   18
C18
A   19
C19
A   20
O20
A   21
C23
M  END
>  <Id>  (6) 
2I0J_I0G_D_1

>  <ChainId>  (6) 
D

>  <AsymId>  (6) 
H

>  <SeqNum>  (6) 
1

>  <Name>  (6) 
(3AS,4R,9BR)-4-(4-HYDROXYPHENYL)-1,2,3,3A,4,9B-HEXAHYDROCYCLOPENTA[C]CHROMEN-8-OL

>  <SystematicName>  (6) 
(3aS,4R,9bR)-4-(4-hydroxyphenyl)-1,2,3,3a,4,9b-hexahydrocyclopenta[c]chromen-8-ol

>  <Synonyms>  (6) 


>  <Type>  (6) 
NON-POLYMER

>  <Formula>  (6) 
C18 H18 O3

>  <ObservedFormula>  (6) 
C18 O3

>  <MolecularWeight>  (6) 
282.334

>  <ModifiedDate>  (6) 
2011-06-04

>  <Parent>  (6) 


>  <OneLetterCode>  (6) 


>  <SubcomponentList>  (6) 


>  <AmbiguousFlag>  (6) 


>  <InsertionCode>  (6) 


>  <InstanceId>  (6) 
2I0J_I0G_D_1

>  <ChemCompId>  (6) 
I0G

>  <PdbId>  (6) 
2I0J

>  <ResidueNumber>  (6) 
1

>  <InChI>  (6) 
InChI=1S/C18H18O3/c19-12-6-4-11(5-7-12)18-15-3-1-2-14(15)16-10-13(20)8-9-17(16)21-18/h4-10,14-15,18-20H,1-3H2/t14-,15+,18+/m1/s1

>  <InChIKey>  (6) 
XIESSJVMWNJCGZ-VKJFTORMSA-N

>  <SMILES>  (6) 
c1cc(ccc1[C@H]2[C@H]3CCC[C@H]3c4cc(ccc4O2)O)O

>  <MissingHeavyAtoms>  (6) 
0

>  <Model>  (6) 
1

>  <AltIds>  (6) 


>  <pKI>  (6) 
8.59

>  <ChemblID>  (6) 
CHEMBL278703

>  <standardized_canonical_smiles>  (6) 
Oc1ccc([C@@H]2Oc3ccc(O)cc3[C@@H]3CCC[C@@H]32)cc1

$$$$
2AYR_L4G_A_201
     RDKit          3D

 37 41  0  0  0  0  0  0  0  0999 V2000
   32.2070    0.4660   28.2400 C   0  0  0  0  0  0  0  0  0  0  0  0
   29.8570    1.3550   28.2530 C   0  0  0  0  0  0  0  0  0  0  0  0
   27.9180   -0.0290   27.6560 C   0  0  0  0  0  0  0  0  0  0  0  0
   28.2180   -2.4130   27.0040 C   0  0  0  0  0  0  0  0  0  0  0  0
   32.8720    1.6290   27.7200 C   0  0  0  0  0  0  0  0  0  0  0  0
   26.5200   -0.1610   27.4720 C   0  0  0  0  0  0  0  0  0  0  0  0
   32.6480   -3.1980   25.8070 C   0  0  0  0  0  0  0  0  0  0  0  0
   34.2670    1.8030   27.9250 C   0  0  0  0  0  0  0  0  0  0  0  0
   33.2880   -3.2900   24.5500 C   0  0  0  0  0  0  0  0  0  0  0  0
   31.9560   -1.3950   23.7080 C   0  0  0  0  0  0  0  0  0  0  0  0
   35.0090    0.8240   28.6360 C   0  0  0  0  0  0  0  0  0  0  0  0
   32.9480   -2.3840   23.4780 C   0  0  0  0  0  0  0  0  0  0  0  0
   30.2020   -1.0240   27.5980 C   0  0  0  0  0  0  0  0  0  0  0  0
   30.7510    0.2590   28.0310 C   0  0  0  0  0  0  0  0  0  0  0  0
   28.7900   -1.1620   27.4180 C   0  0  0  0  0  0  0  0  0  0  0  0
   31.0320   -2.1570   27.3520 O   0  0  0  0  0  0  0  0  0  0  0  0
   31.6570   -2.2140   26.0460 C   0  0  0  0  0  0  0  0  0  0  0  0
   32.9800   -0.5030   28.9590 C   0  0  0  0  0  0  0  0  0  0  0  0
   28.4600    1.2130   28.0670 C   0  0  0  0  0  0  0  0  0  0  0  0
   26.8220   -2.5290   26.8260 C   0  0  0  0  0  0  0  0  0  0  0  0
   31.3180   -1.3050   24.9650 C   0  0  0  0  0  0  0  0  0  0  0  0
   34.3670   -0.3240   29.1540 C   0  0  0  0  0  0  0  0  0  0  0  0
   25.9730   -1.4110   27.0580 C   0  0  0  0  0  0  0  0  0  0  0  0
   24.6510   -1.5330   26.8790 O   0  0  0  0  0  0  0  0  0  0  0  0
   36.7580    1.0300   28.9080 S   0  0  0  0  0  0  0  0  0  0  0  0
   33.5370   -2.4060   22.1890 O   0  0  0  0  0  0  0  0  0  0  0  0
   38.0420   -0.2180   28.5040 C   0  0  0  0  0  0  0  0  0  0  0  0
   36.9320    1.3850   30.3880 O   0  0  0  0  0  0  0  0  0  0  0  0
   37.1800    2.3840   28.3060 O   0  0  0  0  0  0  0  0  0  0  0  0
   34.2630   -3.5730   21.7600 C   0  0  0  0  0  0  0  0  0  0  0  0
   33.2780   -4.5520   21.0860 C   0  0  0  0  0  0  0  0  0  0  0  0
   32.5200   -4.1440   19.9020 N   0  0  0  0  0  0  0  0  0  0  0  0
   33.4010   -3.4750   18.9190 C   0  0  0  0  0  0  0  0  0  0  0  0
   31.3630   -3.2510   20.2030 C   0  0  0  0  0  0  0  0  0  0  0  0
   32.6540   -3.3240   17.5790 C   0  0  0  0  0  0  0  0  0  0  0  0
   30.4990   -3.0460   18.9390 C   0  0  0  0  0  0  0  0  0  0  0  0
   31.3680   -2.4930   17.7890 C   0  0  0  0  0  0  0  0  0  0  0  0
  5  1  2  0
 14  1  1  0
 18  1  1  0
 14  2  2  0
 19  2  1  0
  6  3  1  0
 15  3  1  0
 19  3  2  0
 15  4  1  0
 20  4  2  0
  8  5  1  0
 23  6  2  0
  9  7  2  0
 17  7  1  0
 11  8  2  0
 12  9  1  0
 12 10  2  0
 21 10  1  0
 22 11  1  0
 25 11  1  0
 26 12  1  0
 14 13  1  0
 15 13  2  0
 16 13  1  0
 17 16  1  0
 21 17  2  0
 22 18  2  0
 23 20  1  0
 24 23  1  0
 27 25  1  0
 28 25  2  0
 29 25  2  0
 30 26  1  0
 31 30  1  0
 32 31  1  0
 33 32  1  0
 34 32  1  0
 35 33  1  0
 36 34  1  0
 37 35  1  0
 37 36  1  0
A    1
C5
A    2
C6
A    3
C7
A    4
C8
A    5
C10
A    6
C13
A    7
C15
A    8
C17
A    9
C20
A   10
C21
A   11
C22
A   12
C24
A   13
C1
A   14
C2
A   15
C3
A   16
O4
A   17
C9
A   18
C11
A   19
C12
A   20
C14
A   21
C16
A   22
C18
A   23
C19
A   24
O23
A   25
S25
A   26
O26
A   27
C27
A   28
O28
A   29
O29
A   30
C30
A   31
C31
A   32
N32
A   33
C33
A   34
C34
A   35
C35
A   36
C36
A   37
C37
M  END
>  <Id>  (7) 
2AYR_L4G_A_201

>  <ChainId>  (7) 
A

>  <AsymId>  (7) 
B

>  <SeqNum>  (7) 
201

>  <Name>  (7) 
6-(4-METHYLSULFONYL-PHENYL)-5-[4-(2-PIPERIDIN-1-YLETHOXY)PHENOXY]NAPHTHALEN-2-OL

>  <SystematicName>  (7) 
6-(4-methylsulfonylphenyl)-5-[4-(2-piperidin-1-ylethoxy)phenoxy]naphthalen-2-ol

>  <Synonyms>  (7) 


>  <Type>  (7) 
NON-POLYMER

>  <Formula>  (7) 
C30 H31 N O5 S

>  <ObservedFormula>  (7) 
C30 S N O5

>  <MolecularWeight>  (7) 
517.636

>  <ModifiedDate>  (7) 
2011-06-04

>  <Parent>  (7) 


>  <OneLetterCode>  (7) 


>  <SubcomponentList>  (7) 


>  <AmbiguousFlag>  (7) 
N

>  <InsertionCode>  (7) 


>  <InstanceId>  (7) 
2AYR_L4G_A_201

>  <ChemCompId>  (7) 
L4G

>  <PdbId>  (7) 
2AYR

>  <ResidueNumber>  (7) 
201

>  <InChI>  (7) 
InChI=1S/C30H31NO5S/c1-37(33,34)27-13-5-22(6-14-27)28-15-7-23-21-24(32)8-16-29(23)30(28)36-26-11-9-25(10-12-26)35-20-19-31-17-3-2-4-18-31/h5-16,21,32H,2-4,17-20H2,1H3

>  <InChIKey>  (7) 
NJVFOFMHUJJIMB-UHFFFAOYSA-N

>  <SMILES>  (7) 
CS(=O)(=O)c1ccc(cc1)c2ccc3cc(ccc3c2Oc4ccc(cc4)OCCN5CCCCC5)O

>  <MissingHeavyAtoms>  (7) 
0

>  <Model>  (7) 
1

>  <AltIds>  (7) 


>  <pKI>  (7) 
9.33

>  <ChemblID>  (7) 
CHEMBL243789

>  <standardized_canonical_smiles>  (7) 
CS(=O)(=O)c1ccc(-c2ccc3cc(O)ccc3c2Oc2ccc(OCCN3CCCCC3)cc2)cc1

$$$$
2Q70_DC8_B_51
     RDKit          3D

 23 26  0  0  0  0  0  0  0  0999 V2000
   25.2950   27.8520   71.3720 C   0  0  0  0  0  0  0  0  0  0  0  0
   26.0440   25.8210   70.4010 C   0  0  0  0  0  0  0  0  0  0  0  0
   26.9380   26.5880   69.3750 C   0  0  0  0  0  0  0  0  0  0  0  0
   26.1820   26.9980   68.1000 C   0  0  0  0  0  0  0  0  0  0  0  0
   27.4810   27.9200   70.0030 C   0  0  0  0  0  0  0  0  0  0  0  0
   26.4720   28.5380   70.9930 C   0  0  0  0  0  0  0  0  0  0  0  0
   24.0670   24.3360   69.7880 C   0  0  0  0  0  0  0  0  0  0  0  0
   23.5240   23.1520   69.2690 C   0  0  0  0  0  0  0  0  0  0  0  0
   24.3790   22.1370   68.7820 C   0  0  0  0  0  0  0  0  0  0  0  0
   25.7830   22.3190   68.8170 C   0  0  0  0  0  0  0  0  0  0  0  0
   25.8100   30.4130   72.4530 C   0  0  0  0  0  0  0  0  0  0  0  0
   24.6370   29.7150   72.8220 C   0  0  0  0  0  0  0  0  0  0  0  0
   24.3840   28.4510   72.2870 C   0  0  0  0  0  0  0  0  0  0  0  0
   24.9500   26.6190   70.9050 O   0  0  0  0  0  0  0  0  0  0  0  0
   26.9820   28.1760   67.5480 C   0  0  0  0  0  0  0  0  0  0  0  0
   27.9470   27.7130   66.6570 F   0  0  0  0  0  0  0  0  0  0  0  0
   26.1360   29.0740   66.8920 F   0  0  0  0  0  0  0  0  0  0  0  0
   27.6590   28.8670   68.7600 C   0  0  0  0  0  0  0  0  0  0  0  0
   26.7300   29.8280   71.5410 C   0  0  0  0  0  0  0  0  0  0  0  0
   25.4750   24.5260   69.8250 C   0  0  0  0  0  0  0  0  0  0  0  0
   23.8480   20.9940   68.2810 O   0  0  0  0  0  0  0  0  0  0  0  0
   26.3330   23.5080   69.3390 C   0  0  0  0  0  0  0  0  0  0  0  0
   26.0500   31.6420   72.9740 O   0  0  0  0  0  0  0  0  0  0  0  0
  6  1  2  0
 13  1  1  0
 14  1  1  0
  3  2  1  0
 14  2  1  0
 20  2  1  0
  4  3  1  0
  5  3  1  0
 15  4  1  0
  6  5  1  0
 18  5  1  0
 19  6  1  0
  8  7  2  0
 20  7  1  0
  9  8  1  0
 10  9  2  0
 21  9  1  0
 22 10  1  0
 12 11  1  0
 19 11  2  0
 23 11  1  0
 13 12  2  0
 16 15  1  0
 17 15  1  0
 18 15  1  0
 22 20  2  0
A    1
C4
A    2
C6
A    3
C8
A    4
C10
A    5
C15
A    6
C17
A    7
C20
A    8
C21
A    9
C22
A   10
C24
A   11
C1
A   12
C2
A   13
C3
A   14
O5
A   15
C11
A   16
F12
A   17
F13
A   18
C14
A   19
C18
A   20
C19
A   21
O23
A   22
C25
A   23
O26
M  END
>  <Id>  (8) 
2Q70_DC8_B_51

>  <ChainId>  (8) 
B

>  <AsymId>  (8) 
D

>  <SeqNum>  (8) 
51

>  <Name>  (8) 
(3AS,4R,9BR)-2,2-DIFLUORO-4-(4-HYDROXYPHENYL)-1,2,3,3A,4,9B-HEXAHYDROCYCLOPENTA[C]CHROMEN-8-OL

>  <SystematicName>  (8) 
(3aS,4R,9bR)-2,2-difluoro-4-(4-hydroxyphenyl)-3,3a,4,9b-tetrahydro-1H-cyclopenta[c]chromen-8-ol

>  <Synonyms>  (8) 


>  <Type>  (8) 
NON-POLYMER

>  <Formula>  (8) 
C18 H16 F2 O3

>  <ObservedFormula>  (8) 
C18 F2 O3

>  <MolecularWeight>  (8) 
318.315

>  <ModifiedDate>  (8) 
2011-06-04

>  <Parent>  (8) 


>  <OneLetterCode>  (8) 


>  <SubcomponentList>  (8) 


>  <AmbiguousFlag>  (8) 


>  <InsertionCode>  (8) 


>  <InstanceId>  (8) 
2Q70_DC8_B_51

>  <ChemCompId>  (8) 
DC8

>  <PdbId>  (8) 
2Q70

>  <ResidueNumber>  (8) 
51

>  <InChI>  (8) 
InChI=1S/C18H16F2O3/c19-18(20)8-14-13-7-12(22)5-6-16(13)23-17(15(14)9-18)10-1-3-11(21)4-2-10/h1-7,14-15,17,21-22H,8-9H2/t14-,15-,17-/m0/s1

>  <InChIKey>  (8) 
QJSMFUTULGSHNQ-ZOBUZTSGSA-N

>  <SMILES>  (8) 
c1cc(ccc1[C@H]2[C@H]3CC(C[C@H]3c4cc(ccc4O2)O)(F)F)O

>  <MissingHeavyAtoms>  (8) 
0

>  <Model>  (8) 
1

>  <AltIds>  (8) 


>  <pKI>  (8) 
8.08

>  <ChemblID>  (8) 
CHEMBL236718

>  <standardized_canonical_smiles>  (8) 
Oc1ccc([C@@H]2Oc3ccc(O)cc3[C@@H]3CC(F)(F)C[C@@H]32)cc1

$$$$
2QE4_JJ3_B_601
     RDKit          3D

 24 27  0  0  0  0  0  0  0  0999 V2000
   17.0930   14.4970   33.1300 C   0  0  0  0  0  0  0  0  0  0  0  0
   17.1800   13.1040   32.8910 C   0  0  0  0  0  0  0  0  0  0  0  0
   18.2390   12.5890   32.1130 C   0  0  0  0  0  0  0  0  0  0  0  0
   19.2380   13.4730   31.5740 C   0  0  0  0  0  0  0  0  0  0  0  0
   20.2670   12.9180   30.8100 O   0  0  0  0  0  0  0  0  0  0  0  0
   21.4610   13.7490   30.7780 C   0  0  0  0  0  0  0  0  0  0  0  0
   21.1260   15.1960   30.2930 C   0  0  0  0  0  0  0  0  0  0  0  0
   20.4160   15.2010   28.8860 C   0  0  0  0  0  0  0  0  0  0  0  0
   19.4620   16.4160   28.9210 C   0  0  0  0  0  0  0  0  0  0  0  0
   19.4160   16.9190   30.3780 C   0  0  0  0  0  0  0  0  0  0  0  0
   20.1440   15.8750   31.2760 C   0  0  0  0  0  0  0  0  0  0  0  0
   19.1260   14.8700   31.8220 C   0  0  0  0  0  0  0  0  0  0  0  0
   18.0580   15.3610   32.6050 C   0  0  0  0  0  0  0  0  0  0  0  0
   22.5420   13.1430   29.8670 C   0  0  0  0  0  0  0  0  0  0  0  0
   22.2800   11.9900   29.0810 C   0  0  0  0  0  0  0  0  0  0  0  0
   23.2820   11.4530   28.2470 C   0  0  0  0  0  0  0  0  0  0  0  0
   24.5550   12.0640   28.1950 C   0  0  0  0  0  0  0  0  0  0  0  0
   25.5270   11.5500   27.3970 O   0  0  0  0  0  0  0  0  0  0  0  0
   24.8200   13.2130   28.9760 C   0  0  0  0  0  0  0  0  0  0  0  0
   23.8230   13.7480   29.8080 C   0  0  0  0  0  0  0  0  0  0  0  0
   18.3280   11.0970   31.8590 C   0  0  0  0  0  0  0  0  0  0  0  0
   19.0230   10.4710   32.9380 O   0  0  0  0  0  0  0  0  0  0  0  0
   20.3390   10.1570   32.4850 C   0  0  0  0  0  0  0  0  0  0  0  0
   16.0850   15.0110   33.8720 O   0  0  0  0  0  0  0  0  0  0  0  0
  2  1  2  0
 13  1  1  0
 24  1  1  0
  3  2  1  0
  4  3  2  0
 21  3  1  0
  5  4  1  0
 12  4  1  0
  6  5  1  0
  7  6  1  0
 14  6  1  0
  8  7  1  0
 11  7  1  0
  9  8  1  0
 10  9  1  0
 11 10  1  0
 12 11  1  0
 13 12  2  0
 15 14  2  0
 20 14  1  0
 16 15  1  0
 17 16  2  0
 18 17  1  0
 19 17  1  0
 20 19  2  0
 22 21  1  0
 23 22  1  0
A    1
C1
A    2
C2
A    3
C3
A    4
C4
A    5
O5
A    6
C6
A    7
C8
A    8
C10
A    9
C11
A   10
C12
A   11
C13
A   12
C15
A   13
C16
A   14
C17
A   15
C18
A   16
C19
A   17
C20
A   18
O21
A   19
C22
A   20
C23
A   21
C24
A   22
O25
A   23
C26
A   24
O27
M  END
>  <Id>  (9) 
2QE4_JJ3_B_601

>  <ChainId>  (9) 
B

>  <AsymId>  (9) 
D

>  <SeqNum>  (9) 
601

>  <Name>  (9) 
(3AS,4R,9BR)-4-(4-HYDROXYPHENYL)-6-(METHOXYMETHYL)-1,2,3,3A,4,9B-HEXAHYDROCYCLOPENTA[C]CHROMEN-8-OL

>  <SystematicName>  (9) 
(3aS,4R,9bR)-4-(4-hydroxyphenyl)-6-(methoxymethyl)-1,2,3,3a,4,9b-hexahydrocyclopenta[c]chromen-8-ol

>  <Synonyms>  (9) 


>  <Type>  (9) 
NON-POLYMER

>  <Formula>  (9) 
C20 H22 O4

>  <ObservedFormula>  (9) 
C20 O4

>  <MolecularWeight>  (9) 
326.386

>  <ModifiedDate>  (9) 
2011-06-04

>  <Parent>  (9) 


>  <OneLetterCode>  (9) 


>  <SubcomponentList>  (9) 


>  <AmbiguousFlag>  (9) 


>  <InsertionCode>  (9) 


>  <InstanceId>  (9) 
2QE4_JJ3_B_601

>  <ChemCompId>  (9) 
JJ3

>  <PdbId>  (9) 
2QE4

>  <ResidueNumber>  (9) 
601

>  <InChI>  (9) 
InChI=1S/C20H22O4/c1-23-11-13-9-15(22)10-18-16-3-2-4-17(16)19(24-20(13)18)12-5-7-14(21)8-6-12/h5-10,16-17,19,21-22H,2-4,11H2,1H3/t16-,17+,19+/m1/s1

>  <InChIKey>  (9) 
RHQLNMNKTIOREN-AOIWGVFYSA-N

>  <SMILES>  (9) 
COCc1cc(cc2c1O[C@H]([C@@H]3[C@H]2CCC3)c4ccc(cc4)O)O

>  <MissingHeavyAtoms>  (9) 
0

>  <Model>  (9) 
1

>  <AltIds>  (9) 


>  <pKI>  (9) 
7.94

>  <ChemblID>  (9) 
CHEMBL236086

>  <standardized_canonical_smiles>  (9) 
COCc1cc(O)cc2c1O[C@@H](c1ccc(O)cc1)[C@H]1CCC[C@@H]21

$$$$
5TLL_7EL_B_601
     RDKit          3D

 18 19  0  0  0  0  0  0  0  0999 V2000
   -8.9030   -1.7550   54.7970 O   0  0  0  0  0  0  0  0  0  0  0  0
   -9.6350   -2.1030   53.6570 C   0  0  0  0  0  0  0  0  0  0  0  0
   -9.0080   -2.2060   52.4300 C   0  0  0  0  0  0  0  0  0  0  0  0
   -9.7330   -2.5430   51.3130 C   0  0  0  0  0  0  0  0  0  0  0  0
  -11.0790   -2.8020   51.4140 C   0  0  0  0  0  0  0  0  0  0  0  0
  -11.9100   -3.1580   50.1950 C   0  0  0  0  0  0  0  0  0  0  0  0
  -11.5690   -4.1600   49.2840 C   0  0  0  0  0  0  0  0  0  0  0  0
  -10.1280   -5.1340   49.4550 Cl  0  0  0  0  0  0  0  0  0  0  0  0
  -12.3910   -4.4080   48.1910 C   0  0  0  0  0  0  0  0  0  0  0  0
  -12.0420   -5.4190   47.2800 O   0  0  0  0  0  0  0  0  0  0  0  0
  -13.5550   -3.6700   47.9960 C   0  0  0  0  0  0  0  0  0  0  0  0
  -14.4570   -3.9440   46.7870 C   0  0  0  0  0  0  0  0  0  0  0  0
  -14.7490   -5.1880   46.4230 N   0  0  0  0  0  0  0  0  0  0  0  0
  -15.5590   -5.4140   45.3320 O   0  0  0  0  0  0  0  0  0  0  0  0
  -13.8920   -2.6720   48.8960 C   0  0  0  0  0  0  0  0  0  0  0  0
  -13.0730   -2.4200   49.9900 C   0  0  0  0  0  0  0  0  0  0  0  0
  -11.7030   -2.6880   52.6400 C   0  0  0  0  0  0  0  0  0  0  0  0
  -10.9820   -2.3450   53.7580 C   0  0  0  0  0  0  0  0  0  0  0  0
  2  1  1  0
  3  2  2  0
 18  2  1  0
  4  3  1  0
  5  4  2  0
  6  5  1  0
 17  5  1  0
  7  6  2  0
 16  6  1  0
  8  7  1  0
  9  7  1  0
 10  9  1  0
 11  9  2  0
 12 11  1  0
 15 11  1  0
 13 12  2  0
 14 13  1  0
 16 15  2  0
 18 17  2  0
A    1
O01
A    2
C02
A    3
C03
A    4
C04
A    5
C05
A    6
C06
A    7
C07
A    8
CL
A    9
C09
A   10
O10
A   11
C11
A   12
C12
A   13
N13
A   14
O14
A   15
C15
A   16
C16
A   17
C17
A   18
C18
M  END
>  <Id>  (10) 
5TLL_7EL_B_601

>  <ChainId>  (10) 
B

>  <AsymId>  (10) 
F

>  <SeqNum>  (10) 
601

>  <Name>  (10) 
2-chloro-4-[(E)-(hydroxyimino)methyl][1,1'-biphenyl]-3,4'-diol

>  <SystematicName>  (10) 
2-chloranyl-6-[(~{E})-hydroxyiminomethyl]-3-(4-hydroxyphenyl)phenol

>  <Synonyms>  (10) 


>  <Type>  (10) 
NON-POLYMER

>  <Formula>  (10) 
C13 H10 Cl N O3

>  <ObservedFormula>  (10) 
C13 Cl N O3

>  <MolecularWeight>  (10) 
263.676

>  <ModifiedDate>  (10) 
2017-01-13

>  <Parent>  (10) 


>  <OneLetterCode>  (10) 


>  <SubcomponentList>  (10) 


>  <AmbiguousFlag>  (10) 
N

>  <InsertionCode>  (10) 


>  <InstanceId>  (10) 
5TLL_7EL_B_601

>  <ChemCompId>  (10) 
7EL

>  <PdbId>  (10) 
5TLL

>  <ResidueNumber>  (10) 
601

>  <InChI>  (10) 
InChI=1S/C13H10ClNO3/c14-12-11(8-1-4-10(16)5-2-8)6-3-9(7-15-18)13(12)17/h1-7,16-18H/b15-7+

>  <InChIKey>  (10) 
UPNYTTDLLBLJGJ-VIZOYTHASA-N

>  <SMILES>  (10) 
c1cc(ccc1c2ccc(c(c2Cl)O)/C=N/O)O

>  <MissingHeavyAtoms>  (10) 
0

>  <Model>  (10) 
1

>  <AltIds>  (10) 


>  <pKI>  (10) 
6.51

>  <ChemblID>  (10) 
CHEMBL405154

>  <standardized_canonical_smiles>  (10) 
O/N=C/c1ccc(-c2ccc(O)cc2)c(Cl)c1O

$$$$
3UU7_2OH_B_1
     RDKit          3D

 17 18  0  0  0  0  0  0  0  0999 V2000
  -12.4770  -14.8930   45.6470 O   0  0  0  0  0  0  0  0  0  0  0  0
  -12.7890  -14.0320   46.6530 C   0  0  0  0  0  0  0  0  0  0  0  0
  -13.5150  -12.8760   46.3860 C   0  0  0  0  0  0  0  0  0  0  0  0
  -13.8280  -12.0020   47.4210 C   0  0  0  0  0  0  0  0  0  0  0  0
  -12.3810  -14.3110   47.9510 C   0  0  0  0  0  0  0  0  0  0  0  0
  -12.6980  -13.4370   48.9840 C   0  0  0  0  0  0  0  0  0  0  0  0
  -13.4160  -12.2770   48.7210 C   0  0  0  0  0  0  0  0  0  0  0  0
  -13.7840  -11.3070   49.8500 C   0  0  0  0  0  0  0  0  0  0  0  0
  -15.0270  -11.8460   50.5570 C   0  0  0  0  0  0  0  0  0  0  0  0
  -14.0800   -9.9270   49.2600 C   0  0  0  0  0  0  0  0  0  0  0  0
  -12.6670  -11.1400   50.8960 C   0  0  0  0  0  0  0  0  0  0  0  0
  -13.0250  -10.9160   52.2210 C   0  0  0  0  0  0  0  0  0  0  0  0
  -12.0470  -10.7470   53.1940 C   0  0  0  0  0  0  0  0  0  0  0  0
  -11.3190  -11.1840   50.5460 C   0  0  0  0  0  0  0  0  0  0  0  0
  -10.3370  -11.0170   51.5200 C   0  0  0  0  0  0  0  0  0  0  0  0
  -10.7050  -10.7970   52.8450 C   0  0  0  0  0  0  0  0  0  0  0  0
   -9.7560  -10.6300   53.8060 O   0  0  0  0  0  0  0  0  0  0  0  0
  2  1  1  0
  3  2  2  0
  5  2  1  0
  4  3  1  0
  7  4  2  0
  6  5  2  0
  7  6  1  0
  8  7  1  0
  9  8  1  0
 10  8  1  0
 11  8  1  0
 12 11  2  0
 14 11  1  0
 13 12  1  0
 16 13  2  0
 15 14  2  0
 16 15  1  0
 17 16  1  0
A    1
O2
A    2
C13
A    3
C12
A    4
C11
A    5
C14
A    6
C15
A    7
C4
A    8
C2
A    9
C3
A   10
C5
A   11
C1
A   12
C10
A   13
C9
A   14
C6
A   15
C7
A   16
C8
A   17
O1
M  END
>  <Id>  (11) 
3UU7_2OH_B_1

>  <ChainId>  (11) 
B

>  <AsymId>  (11) 
F

>  <SeqNum>  (11) 
1

>  <Name>  (11) 
4,4'-PROPANE-2,2-DIYLDIPHENOL

>  <SystematicName>  (11) 
4-[2-(4-hydroxyphenyl)propan-2-yl]phenol

>  <Synonyms>  (11) 
4,4'-ISOPROPYLIDENEDIPHENOL, BISPHENOL A

>  <Type>  (11) 
NON-POLYMER

>  <Formula>  (11) 
C15 H16 O2

>  <ObservedFormula>  (11) 
C15 O2

>  <MolecularWeight>  (11) 
228.286

>  <ModifiedDate>  (11) 
2011-06-04

>  <Parent>  (11) 


>  <OneLetterCode>  (11) 


>  <SubcomponentList>  (11) 


>  <AmbiguousFlag>  (11) 


>  <InsertionCode>  (11) 


>  <InstanceId>  (11) 
3UU7_2OH_B_1

>  <ChemCompId>  (11) 
2OH

>  <PdbId>  (11) 
3UU7

>  <ResidueNumber>  (11) 
1

>  <InChI>  (11) 
InChI=1S/C15H16O2/c1-15(2,11-3-7-13(16)8-4-11)12-5-9-14(17)10-6-12/h3-10,16-17H,1-2H3

>  <InChIKey>  (11) 
IISBACLAFKSPIT-UHFFFAOYSA-N

>  <SMILES>  (11) 
CC(C)(c1ccc(cc1)O)c2ccc(cc2)O

>  <MissingHeavyAtoms>  (11) 
0

>  <Model>  (11) 
1

>  <AltIds>  (11) 


>  <pKI>  (11) 
6.19

>  <ChemblID>  (11) 
CHEMBL418971

>  <standardized_canonical_smiles>  (11) 
CC(C)(c1ccc(O)cc1)c1ccc(O)cc1

$$$$
3Q95_ESL_B_700
     RDKit          3D

 21 24  0  0  0  0  0  0  0  0999 V2000
   -1.4630   -3.3610   23.5750 C   0  0  0  0  0  0  0  0  0  0  0  0
   -2.9440   -3.0080   23.3930 C   0  0  0  0  0  0  0  0  0  0  0  0
   -3.5920   -3.8390   22.2530 C   0  0  0  0  0  0  0  0  0  0  0  0
   -2.8150   -3.7090   20.9460 C   0  0  0  0  0  0  0  0  0  0  0  0
   -2.9790   -2.2850   20.4140 C   0  0  0  0  0  0  0  0  0  0  0  0
   -3.1330   -4.7040   19.8370 C   0  0  0  0  0  0  0  0  0  0  0  0
   -4.3150   -4.3850   19.0880 O   0  0  0  0  0  0  0  0  0  0  0  0
   -1.8810   -4.6570   18.9490 C   0  0  0  0  0  0  0  0  0  0  0  0
   -1.6230   -5.9330   18.3630 O   0  0  0  0  0  0  0  0  0  0  0  0
   -0.7280   -4.1630   19.8420 C   0  0  0  0  0  0  0  0  0  0  0  0
   -1.3710   -4.0850   21.2240 C   0  0  0  0  0  0  0  0  0  0  0  0
   -0.7180   -3.1870   22.2640 C   0  0  0  0  0  0  0  0  0  0  0  0
    0.7540   -3.5090   22.4280 C   0  0  0  0  0  0  0  0  0  0  0  0
    1.3830   -2.4930   23.3620 C   0  0  0  0  0  0  0  0  0  0  0  0
    0.5720   -2.3490   24.6350 C   0  0  0  0  0  0  0  0  0  0  0  0
    1.2030   -1.7560   25.7270 C   0  0  0  0  0  0  0  0  0  0  0  0
    0.5280   -1.5610   26.9240 C   0  0  0  0  0  0  0  0  0  0  0  0
    1.1710   -0.9880   27.9740 O   0  0  0  0  0  0  0  0  0  0  0  0
   -0.8010   -1.9430   27.0370 C   0  0  0  0  0  0  0  0  0  0  0  0
   -1.4350   -2.5110   25.9300 C   0  0  0  0  0  0  0  0  0  0  0  0
   -0.7630   -2.7100   24.7240 C   0  0  0  0  0  0  0  0  0  0  0  0
  2  1  1  0
 12  1  1  0
 21  1  1  0
  3  2  1  0
  4  3  1  0
  5  4  1  0
  6  4  1  0
 11  4  1  0
  7  6  1  0
  8  6  1  0
  9  8  1  0
 10  8  1  0
 11 10  1  0
 12 11  1  0
 13 12  1  0
 14 13  1  0
 15 14  1  0
 16 15  2  0
 21 15  1  0
 17 16  1  0
 18 17  1  0
 19 17  2  0
 20 19  1  0
 21 20  2  0
A    1
C2
A    2
C3
A    3
C4
A    4
C5
A    5
C6
A    6
C7
A    7
O1
A    8
C8
A    9
O2
A   10
C9
A   11
C10
A   12
C12
A   13
C14
A   14
C15
A   15
C16
A   16
C17
A   17
C18
A   18
O3
A   19
C19
A   20
C20
A   21
C21
M  END
>  <Id>  (12) 
3Q95_ESL_B_700

>  <ChainId>  (12) 
B

>  <AsymId>  (12) 
J

>  <SeqNum>  (12) 
700

>  <Name>  (12) 
ESTRIOL

>  <SystematicName>  (12) 
(8R,9S,13S,14S,16R,17R)-13-methyl-6,7,8,9,11,12,14,15,16,17-decahydrocyclopenta[a]phenanthrene-3,16,17-triol

>  <Synonyms>  (12) 
1,3,5(10)-ESTRATRIENE-3,16,17-TRIOL

>  <Type>  (12) 
NON-POLYMER

>  <Formula>  (12) 
C18 H24 O3

>  <ObservedFormula>  (12) 
C18 O3

>  <MolecularWeight>  (12) 
288.381

>  <ModifiedDate>  (12) 
2011-06-04

>  <Parent>  (12) 


>  <OneLetterCode>  (12) 


>  <SubcomponentList>  (12) 


>  <AmbiguousFlag>  (12) 
N

>  <InsertionCode>  (12) 


>  <InstanceId>  (12) 
3Q95_ESL_B_700

>  <ChemCompId>  (12) 
ESL

>  <PdbId>  (12) 
3Q95

>  <ResidueNumber>  (12) 
700

>  <InChI>  (12) 
InChI=1S/C18H24O3/c1-18-7-6-13-12-5-3-11(19)8-10(12)2-4-14(13)15(18)9-16(20)17(18)21/h3,5,8,13-17,19-21H,2,4,6-7,9H2,1H3/t13-,14-,15+,16-,17+,18+/m1/s1

>  <InChIKey>  (12) 
PROQIPRRNZUXQM-ZXXIGWHRSA-N

>  <SMILES>  (12) 
C[C@]12CC[C@@H]3c4ccc(cc4CC[C@H]3[C@@H]1C[C@H]([C@@H]2O)O)O

>  <MissingHeavyAtoms>  (12) 
0

>  <Model>  (12) 
1

>  <AltIds>  (12) 


>  <pKI>  (12) 
9.32

>  <ChemblID>  (12) 
CHEMBL193482

>  <standardized_canonical_smiles>  (12) 
C[C@]12CC[C@@H]3c4ccc(O)cc4CC[C@H]3[C@@H]1C[C@@H](O)[C@@H]2O

$$$$
6VJ1_QYM_E_601
     RDKit          3D

 32 36  0  0  0  0  0  0  0  0999 V2000
   12.0420   -4.6090  -67.2140 C   0  0  0  0  0  0  0  0  0  0  0  0
   11.4770   -3.3850  -67.0480 C   0  0  0  0  0  0  0  0  0  0  0  0
    9.9920   -3.2280  -67.1310 C   0  0  0  0  0  0  0  0  0  0  0  0
    9.1890   -4.2980  -67.3780 C   0  0  0  0  0  0  0  0  0  0  0  0
    9.8480   -5.6710  -67.5680 C   0  0  0  0  0  0  0  0  0  0  0  0
   11.1420   -5.8040  -67.5340 C   0  0  0  0  0  0  0  0  0  0  0  0
    8.9320   -6.6900  -67.8100 C   0  0  0  0  0  0  0  0  0  0  0  0
    9.4610   -7.5940  -68.7410 C   0  0  0  0  0  0  0  0  0  0  0  0
   10.6440   -8.3270  -68.1660 C   0  0  0  0  0  0  0  0  0  0  0  0
   11.6840   -7.1360  -67.5880 C   0  0  0  0  0  0  0  0  0  0  0  0
   11.2950   -9.2630  -68.9650 C   0  0  0  0  0  0  0  0  0  0  0  0
   12.5970   -9.7090  -68.4400 C   0  0  0  0  0  0  0  0  0  0  0  0
   13.5840   -8.6930  -68.4920 C   0  0  0  0  0  0  0  0  0  0  0  0
   13.2540   -7.3580  -67.7400 C   0  0  0  0  0  0  0  0  0  0  0  0
   10.4470  -10.6370  -69.0470 C   0  0  0  0  0  0  0  0  0  0  0  0
   11.6490  -11.7300  -69.4170 C   0  0  0  0  0  0  0  0  0  0  0  0
   12.9680  -10.8670  -69.3690 C   0  0  0  0  0  0  0  0  0  0  0  0
   12.5260  -10.3810  -67.0590 C   0  0  0  0  0  0  0  0  0  0  0  0
   13.6270   -7.4320  -66.3180 C   0  0  0  0  0  0  0  0  0  0  0  0
   14.9260   -7.6340  -65.8530 C   0  0  0  0  0  0  0  0  0  0  0  0
   15.1690   -7.6830  -64.4660 C   0  0  0  0  0  0  0  0  0  0  0  0
   14.1140   -7.5420  -63.5540 C   0  0  0  0  0  0  0  0  0  0  0  0
   12.8270   -7.3500  -64.0000 C   0  0  0  0  0  0  0  0  0  0  0  0
   12.6090   -7.3020  -65.3670 C   0  0  0  0  0  0  0  0  0  0  0  0
   15.5680   -7.8540  -61.6350 C   0  0  0  0  0  0  0  0  0  0  0  0
   15.4330   -7.9700  -60.0970 C   0  0  0  0  0  0  0  0  0  0  0  0
   15.7530   -6.8410  -58.0820 C   0  0  0  0  0  0  0  0  0  0  0  0
   14.1940   -5.9900  -59.5910 C   0  0  0  0  0  0  0  0  0  0  0  0
   15.4570   -6.6640  -59.4660 N   0  0  0  0  0  0  0  0  0  0  0  0
    9.4400   -1.9220  -66.9440 O   0  0  0  0  0  0  0  0  0  0  0  0
   13.9790  -11.5870  -68.8340 O   0  0  0  0  0  0  0  0  0  0  0  0
   14.2660   -7.5820  -62.1420 O   0  0  0  0  0  0  0  0  0  0  0  0
  2  1  2  0
  6  1  1  0
  3  2  1  0
  4  3  2  0
 30  3  1  0
  5  4  1  0
  6  5  2  0
  7  5  1  0
 10  6  1  0
  8  7  1  0
  9  8  1  0
 10  9  1  0
 11  9  1  0
 14 10  1  0
 12 11  1  0
 15 11  1  0
 13 12  1  0
 17 12  1  0
 18 12  1  0
 14 13  1  0
 19 14  1  0
 16 15  1  0
 17 16  1  0
 31 17  1  0
 20 19  2  0
 24 19  1  0
 21 20  1  0
 22 21  2  0
 23 22  1  0
 32 22  1  0
 24 23  2  0
 26 25  1  0
 32 25  1  0
 29 26  1  0
 29 27  1  0
 29 28  1  0
A    1
CAA
A    2
CAB
A    3
CAC
A    4
CAD
A    5
CAE
A    6
CAF
A    7
CAG
A    8
CAH
A    9
CAI
A   10
CAJ
A   11
CAK
A   12
CAL
A   13
CAM
A   14
CAN
A   15
CAO
A   16
CAP
A   17
CAQ
A   18
CAS
A   19
CAU
A   20
CAV
A   21
CAW
A   22
CAX
A   23
CAY
A   24
CAZ
A   25
CBB
A   26
CBC
A   27
CBE
A   28
CBF
A   29
NBD
A   30
OAR
A   31
OAT
A   32
OBA
M  END
>  <Id>  (13) 
6VJ1_QYM_E_601

>  <ChainId>  (13) 
E

>  <AsymId>  (13) 
H

>  <SeqNum>  (13) 
601

>  <Name>  (13) 
(9beta,11beta,17beta)-11-{4-[2-(dimethylamino)ethoxy]phenyl}estra-1,3,5(10)-triene-3,17-diol

>  <SystematicName>  (13) 
(8~{S},9~{S},11~{S},13~{S},14~{S},17~{S})-11-[4-[2-(dimethylamino)ethoxy]phenyl]-13-methyl-6,7,8,9,11,12,14,15,16,17-decahydrocyclopenta[a]phenanthrene-3,17-diol

>  <Synonyms>  (13) 
RU39411

>  <Type>  (13) 
non-polymer

>  <Formula>  (13) 
C28 H37 N O3

>  <ObservedFormula>  (13) 
C28 N O3

>  <MolecularWeight>  (13) 
435.598

>  <ModifiedDate>  (13) 
2020-01-24

>  <Parent>  (13) 


>  <OneLetterCode>  (13) 


>  <SubcomponentList>  (13) 


>  <AmbiguousFlag>  (13) 
N

>  <InsertionCode>  (13) 


>  <InstanceId>  (13) 
6VJ1_QYM_E_601

>  <ChemCompId>  (13) 
QYM

>  <PdbId>  (13) 
6VJ1

>  <ResidueNumber>  (13) 
601

>  <InChI>  (13) 
InChI=1S/C28H37NO3/c1-28-17-24(18-4-8-21(9-5-18)32-15-14-29(2)3)27-22-11-7-20(30)16-19(22)6-10-23(27)25(28)12-13-26(28)31/h4-5,7-9,11,16,23-27,30-31H,6,10,12-15,17H2,1-3H3/t23-,24+,25-,26-,27-,28-/m0/s1

>  <InChIKey>  (13) 
VBPPJMXMMHJPDP-QWGZUQTQSA-N

>  <SMILES>  (13) 
C[C@]12C[C@@H]([C@H]3c4ccc(cc4CC[C@H]3[C@@H]1CC[C@@H]2O)O)c5ccc(cc5)OCCN(C)C

>  <MissingHeavyAtoms>  (13) 
0

>  <Model>  (13) 
1

>  <AltIds>  (13) 


>  <pKI>  (13) 
7.38

>  <ChemblID>  (13) 
CHEMBL1628190

>  <standardized_canonical_smiles>  (13) 
CN(C)CCOc1ccc([C@H]2C[C@]3(C)[C@@H](O)CC[C@H]3[C@@H]3CCc4cc(O)ccc4[C@@H]23)cc1

$$$$
6VIG_QYM_D_601
     RDKit          3D

 32 36  0  0  0  0  0  0  0  0999 V2000
   45.8700  -26.6020  -27.9580 C   0  0  0  0  0  0  0  0  0  0  0  0
   46.6820  -25.5180  -27.9130 C   0  0  0  0  0  0  0  0  0  0  0  0
   46.1140  -24.1420  -28.1140 C   0  0  0  0  0  0  0  0  0  0  0  0
   44.7960  -23.9620  -28.3440 C   0  0  0  0  0  0  0  0  0  0  0  0
   43.8960  -25.2100  -28.3930 C   0  0  0  0  0  0  0  0  0  0  0  0
   44.3880  -26.4080  -28.2620 C   0  0  0  0  0  0  0  0  0  0  0  0
   42.5590  -24.9360  -28.6340 C   0  0  0  0  0  0  0  0  0  0  0  0
   42.0790  -25.9230  -29.5140 C   0  0  0  0  0  0  0  0  0  0  0  0
   41.9500  -27.2420  -28.7960 C   0  0  0  0  0  0  0  0  0  0  0  0
   43.4890  -27.5310  -28.1990 C   0  0  0  0  0  0  0  0  0  0  0  0
   41.4190  -28.3270  -29.4930 C   0  0  0  0  0  0  0  0  0  0  0  0
   41.6700  -29.6400  -28.8710 C   0  0  0  0  0  0  0  0  0  0  0  0
   43.0400  -30.0030  -28.9320 C   0  0  0  0  0  0  0  0  0  0  0  0
   44.0730  -29.0100  -28.2870 C   0  0  0  0  0  0  0  0  0  0  0  0
   39.8070  -28.2460  -29.5040 C   0  0  0  0  0  0  0  0  0  0  0  0
   39.4100  -29.8390  -29.7810 C   0  0  0  0  0  0  0  0  0  0  0  0
   40.7870  -30.5990  -29.6880 C   0  0  0  0  0  0  0  0  0  0  0  0
   41.1030  -29.7440  -27.4470 C   0  0  0  0  0  0  0  0  0  0  0  0
   44.3160  -29.2490  -26.8570 C   0  0  0  0  0  0  0  0  0  0  0  0
   43.8810  -28.2590  -25.9620 C   0  0  0  0  0  0  0  0  0  0  0  0
   44.0630  -28.3360  -24.5900 C   0  0  0  0  0  0  0  0  0  0  0  0
   44.6920  -29.4550  -24.0970 C   0  0  0  0  0  0  0  0  0  0  0  0
   45.1460  -30.4710  -24.9480 C   0  0  0  0  0  0  0  0  0  0  0  0
   44.9610  -30.3710  -26.3420 C   0  0  0  0  0  0  0  0  0  0  0  0
   45.7590  -30.4910  -22.2190 C   0  0  0  0  0  0  0  0  0  0  0  0
   45.7810  -30.3960  -20.6750 C   0  0  0  0  0  0  0  0  0  0  0  0
   46.7150  -28.2160  -20.5730 C   0  0  0  0  0  0  0  0  0  0  0  0
   46.9630  -29.6720  -18.7710 C   0  0  0  0  0  0  0  0  0  0  0  0
   46.8830  -29.5870  -20.1980 N   0  0  0  0  0  0  0  0  0  0  0  0
   47.0050  -23.0140  -28.0470 O   0  0  0  0  0  0  0  0  0  0  0  0
   40.6100  -31.7880  -29.0690 O   0  0  0  0  0  0  0  0  0  0  0  0
   44.8510  -29.4980  -22.6870 O   0  0  0  0  0  0  0  0  0  0  0  0
  2  1  2  0
  6  1  1  0
  3  2  1  0
  4  3  2  0
 30  3  1  0
  5  4  1  0
  6  5  2  0
  7  5  1  0
 10  6  1  0
  8  7  1  0
  9  8  1  0
 10  9  1  0
 11  9  1  0
 14 10  1  0
 12 11  1  0
 15 11  1  0
 13 12  1  0
 17 12  1  0
 18 12  1  0
 14 13  1  0
 19 14  1  0
 16 15  1  0
 17 16  1  0
 31 17  1  0
 20 19  2  0
 24 19  1  0
 21 20  1  0
 22 21  2  0
 23 22  1  0
 32 22  1  0
 24 23  2  0
 26 25  1  0
 32 25  1  0
 29 26  1  0
 29 27  1  0
 29 28  1  0
A    1
CAA
A    2
CAB
A    3
CAC
A    4
CAD
A    5
CAE
A    6
CAF
A    7
CAG
A    8
CAH
A    9
CAI
A   10
CAJ
A   11
CAK
A   12
CAL
A   13
CAM
A   14
CAN
A   15
CAO
A   16
CAP
A   17
CAQ
A   18
CAS
A   19
CAU
A   20
CAV
A   21
CAW
A   22
CAX
A   23
CAY
A   24
CAZ
A   25
CBB
A   26
CBC
A   27
CBE
A   28
CBF
A   29
NBD
A   30
OAR
A   31
OAT
A   32
OBA
M  END
>  <Id>  (14) 
6VIG_QYM_D_601

>  <ChainId>  (14) 
D

>  <AsymId>  (14) 
H

>  <SeqNum>  (14) 
601

>  <Name>  (14) 
(9beta,11beta,17beta)-11-{4-[2-(dimethylamino)ethoxy]phenyl}estra-1,3,5(10)-triene-3,17-diol

>  <SystematicName>  (14) 
(8~{S},9~{S},11~{S},13~{S},14~{S},17~{S})-11-[4-[2-(dimethylamino)ethoxy]phenyl]-13-methyl-6,7,8,9,11,12,14,15,16,17-decahydrocyclopenta[a]phenanthrene-3,17-diol

>  <Synonyms>  (14) 
RU39411

>  <Type>  (14) 
non-polymer

>  <Formula>  (14) 
C28 H37 N O3

>  <ObservedFormula>  (14) 
C28 N O3

>  <MolecularWeight>  (14) 
435.598

>  <ModifiedDate>  (14) 
2020-01-24

>  <Parent>  (14) 


>  <OneLetterCode>  (14) 


>  <SubcomponentList>  (14) 


>  <AmbiguousFlag>  (14) 
N

>  <InsertionCode>  (14) 


>  <InstanceId>  (14) 
6VIG_QYM_D_601

>  <ChemCompId>  (14) 
QYM

>  <PdbId>  (14) 
6VIG

>  <ResidueNumber>  (14) 
601

>  <InChI>  (14) 
InChI=1S/C28H37NO3/c1-28-17-24(18-4-8-21(9-5-18)32-15-14-29(2)3)27-22-11-7-20(30)16-19(22)6-10-23(27)25(28)12-13-26(28)31/h4-5,7-9,11,16,23-27,30-31H,6,10,12-15,17H2,1-3H3/t23-,24+,25-,26-,27-,28-/m0/s1

>  <InChIKey>  (14) 
VBPPJMXMMHJPDP-QWGZUQTQSA-N

>  <SMILES>  (14) 
C[C@]12C[C@@H]([C@H]3c4ccc(cc4CC[C@H]3[C@@H]1CC[C@@H]2O)O)c5ccc(cc5)OCCN(C)C

>  <MissingHeavyAtoms>  (14) 
0

>  <Model>  (14) 
1

>  <AltIds>  (14) 


>  <pKI>  (14) 
7.38

>  <ChemblID>  (14) 
CHEMBL1628190

>  <standardized_canonical_smiles>  (14) 
CN(C)CCOc1ccc([C@H]2C[C@]3(C)[C@@H](O)CC[C@H]3[C@@H]3CCc4cc(O)ccc4[C@@H]23)cc1

$$$$
3L03_4OH_B_2
     RDKit          3D

 22 25  0  0  0  0  0  0  0  0999 V2000
  -32.6770   -4.8120   20.2570 C   0  0  0  0  0  0  0  0  0  0  0  0
  -33.5780   -5.3780   19.1590 C   0  0  0  0  0  0  0  0  0  0  0  0
  -33.4460   -4.9980   21.5660 C   0  0  0  0  0  0  0  0  0  0  0  0
  -31.3730   -5.6170   20.3410 C   0  0  0  0  0  0  0  0  0  0  0  0
  -34.8510   -4.5800   19.0300 C   0  0  0  0  0  0  0  0  0  0  0  0
  -33.0890   -5.4070   17.6980 C   0  0  0  0  0  0  0  0  0  0  0  0
  -32.6070   -4.7350   22.7680 C   0  0  0  0  0  0  0  0  0  0  0  0
  -34.7120   -4.1400   21.5340 C   0  0  0  0  0  0  0  0  0  0  0  0
  -30.4660   -5.0880   21.4470 C   0  0  0  0  0  0  0  0  0  0  0  0
  -35.5030   -5.3090   17.8620 C   0  0  0  0  0  0  0  0  0  0  0  0
  -35.6220   -4.5570   20.3640 C   0  0  0  0  0  0  0  0  0  0  0  0
  -34.5200   -3.1580   18.5970 C   0  0  0  0  0  0  0  0  0  0  0  0
  -34.3690   -5.4000   16.8480 C   0  0  0  0  0  0  0  0  0  0  0  0
  -32.4150   -6.6310   17.4410 O   0  0  0  0  0  0  0  0  0  0  0  0
  -31.2170   -4.7960   22.7260 C   0  0  0  0  0  0  0  0  0  0  0  0
  -33.2100   -4.4600   23.9970 C   0  0  0  0  0  0  0  0  0  0  0  0
  -36.5780   -4.5820   17.2520 O   0  0  0  0  0  0  0  0  0  0  0  0
  -34.4580   -6.6280   16.1050 O   0  0  0  0  0  0  0  0  0  0  0  0
  -30.4160   -4.5740   23.8480 C   0  0  0  0  0  0  0  0  0  0  0  0
  -32.4130   -4.2300   25.1240 C   0  0  0  0  0  0  0  0  0  0  0  0
  -31.0210   -4.3010   25.0640 C   0  0  0  0  0  0  0  0  0  0  0  0
  -30.2250   -4.0970   26.1450 O   0  0  0  0  0  0  0  0  0  0  0  0
  2  1  1  0
  3  1  1  0
  4  1  1  0
  5  2  1  0
  6  2  1  0
  7  3  1  0
  8  3  1  0
  9  4  1  0
 10  5  1  0
 11  5  1  0
 12  5  1  0
 13  6  1  0
 14  6  1  0
 15  7  2  0
 16  7  1  0
 11  8  1  0
 15  9  1  0
 13 10  1  0
 17 10  1  0
 18 13  1  0
 19 15  1  0
 20 16  2  0
 21 19  2  0
 21 20  1  0
 22 21  1  0
A    1
CAA
A    2
CAB
A    3
CAC
A    4
CAD
A    5
CAE
A    6
CAF
A    7
CAG
A    8
CAH
A    9
CAI
A   10
CAJ
A   11
CAK
A   12
CAL
A   13
CAM
A   14
OAN
A   15
CAO
A   16
CAP
A   17
OAQ
A   18
OAR
A   19
CAS
A   20
CAT
A   21
CAU
A   22
OAV
M  END
>  <Id>  (15) 
3L03_4OH_B_2

>  <ChainId>  (15) 
B

>  <AsymId>  (15) 
H

>  <SeqNum>  (15) 
2

>  <Name>  (15) 
(14beta,15alpha,16alpha,17alpha)-estra-1,3,5(10)-triene-3,15,16,17-tetrol

>  <SystematicName>  (15) 
(8R,9S,13S,14S,15R,16R,17R)-13-methyl-6,7,8,9,11,12,14,15,16,17-decahydrocyclopenta[a]phenanthrene-3,15,16,17-tetrol

>  <Synonyms>  (15) 
Estra-1,3,5(10)-triene-3,15 alpha,16alpha,17beta-tetrol

>  <Type>  (15) 
NON-POLYMER

>  <Formula>  (15) 
C18 H24 O4

>  <ObservedFormula>  (15) 
C18 O4

>  <MolecularWeight>  (15) 
304.381

>  <ModifiedDate>  (15) 
2011-06-04

>  <Parent>  (15) 


>  <OneLetterCode>  (15) 


>  <SubcomponentList>  (15) 


>  <AmbiguousFlag>  (15) 
N

>  <InsertionCode>  (15) 


>  <InstanceId>  (15) 
3L03_4OH_B_2

>  <ChemCompId>  (15) 
4OH

>  <PdbId>  (15) 
3L03

>  <ResidueNumber>  (15) 
2

>  <InChI>  (15) 
InChI=1S/C18H24O4/c1-18-7-6-12-11-5-3-10(19)8-9(11)2-4-13(12)14(18)15(20)16(21)17(18)22/h3,5,8,12-17,19-22H,2,4,6-7H2,1H3/t12-,13-,14-,15-,16-,17+,18+/m1/s1

>  <InChIKey>  (15) 
AJIPIJNNOJSSQC-NYLIRDPKSA-N

>  <SMILES>  (15) 
C[C@]12CC[C@@H]3c4ccc(cc4CC[C@H]3[C@@H]1[C@H]([C@H]([C@@H]2O)O)O)O

>  <MissingHeavyAtoms>  (15) 
0

>  <Model>  (15) 
1

>  <AltIds>  (15) 


>  <pKI>  (15) 
8.31

>  <ChemblID>  (15) 
CHEMBL1230314

>  <standardized_canonical_smiles>  (15) 
C[C@]12CC[C@@H]3c4ccc(O)cc4CC[C@H]3[C@@H]1[C@@H](O)[C@@H](O)[C@@H]2O

$$$$
2B1V_458_B_202
     RDKit          3D

 19 21  0  0  0  0  0  0  0  0999 V2000
   -5.3910   -4.9610   18.3110 C   0  0  0  0  0  0  0  0  0  0  0  0
   -4.6260   -4.5160   19.5760 C   0  0  0  0  0  0  0  0  0  0  0  0
   -5.6030   -3.6640   20.3220 C   0  0  0  0  0  0  0  0  0  0  0  0
   -5.2040   -2.3140   20.9200 C   0  0  0  0  0  0  0  0  0  0  0  0
   -6.8870   -4.1780   20.4210 C   0  0  0  0  0  0  0  0  0  0  0  0
   -7.3180   -5.3960   19.8930 C   0  0  0  0  0  0  0  0  0  0  0  0
   -6.4110   -5.9960   18.7880 C   0  0  0  0  0  0  0  0  0  0  0  0
   -7.2790   -6.5410   17.6340 C   0  0  0  0  0  0  0  0  0  0  0  0
   -8.0740   -5.4850   17.0440 O   0  0  0  0  0  0  0  0  0  0  0  0
   -5.6100   -7.1250   19.3930 C   0  0  0  0  0  0  0  0  0  0  0  0
   -5.2740   -6.6440   20.7120 O   0  0  0  0  0  0  0  0  0  0  0  0
   -4.2340   -5.7040   20.5160 C   0  0  0  0  0  0  0  0  0  0  0  0
   -3.6230   -5.2150   21.8480 C   0  0  0  0  0  0  0  0  0  0  0  0
   -4.4390   -4.9120   22.9610 C   0  0  0  0  0  0  0  0  0  0  0  0
   -3.8410   -4.4690   24.1550 C   0  0  0  0  0  0  0  0  0  0  0  0
   -2.4330   -4.3550   24.2130 C   0  0  0  0  0  0  0  0  0  0  0  0
   -1.8590   -3.9250   25.3670 O   0  0  0  0  0  0  0  0  0  0  0  0
   -1.6120   -4.6530   23.1050 C   0  0  0  0  0  0  0  0  0  0  0  0
   -2.2250   -5.0860   21.9020 C   0  0  0  0  0  0  0  0  0  0  0  0
  2  1  1  0
  7  1  1  0
  3  2  1  0
 12  2  1  0
  4  3  1  0
  5  3  2  0
  6  5  1  0
  7  6  1  0
  8  7  1  0
 10  7  1  0
  9  8  1  0
 11 10  1  0
 12 11  1  0
 13 12  1  0
 14 13  2  0
 19 13  1  0
 15 14  1  0
 16 15  2  0
 17 16  1  0
 18 16  1  0
 19 18  2  0
A    1
CAK
A    2
CAJ
A    3
CAO
A    4
CAR
A    5
CAQ
A    6
CAP
A    7
CAL
A    8
CAT
A    9
OAU
A   10
CAM
A   11
OAH
A   12
CAI
A   13
CAD
A   14
CAC
A   15
CAB
A   16
CAA
A   17
OAG
A   18
CAF
A   19
CAE
M  END
>  <Id>  (16) 
2B1V_458_B_202

>  <ChainId>  (16) 
B

>  <AsymId>  (16) 
F

>  <SeqNum>  (16) 
202

>  <Name>  (16) 
4-[(1S,2S,5S)-5-(HYDROXYMETHYL)-8-METHYL-3-OXABICYCLO[3.3.1]NON-7-EN-2-YL]PHENOL

>  <SystematicName>  (16) 
4-[(1S,2S,5S)-5-(hydroxymethyl)-8-methyl-3-oxabicyclo[3.3.1]non-7-en-2-yl]phenol

>  <Synonyms>  (16) 


>  <Type>  (16) 
NON-POLYMER

>  <Formula>  (16) 
C16 H20 O3

>  <ObservedFormula>  (16) 
C16 O3

>  <MolecularWeight>  (16) 
260.328

>  <ModifiedDate>  (16) 
2011-06-04

>  <Parent>  (16) 


>  <OneLetterCode>  (16) 


>  <SubcomponentList>  (16) 


>  <AmbiguousFlag>  (16) 
N

>  <InsertionCode>  (16) 


>  <InstanceId>  (16) 
2B1V_458_B_202

>  <ChemCompId>  (16) 
458

>  <PdbId>  (16) 
2B1V

>  <ResidueNumber>  (16) 
202

>  <InChI>  (16) 
InChI=1S/C16H20O3/c1-11-6-7-16(9-17)8-14(11)15(19-10-16)12-2-4-13(18)5-3-12/h2-6,14-15,17-18H,7-10H2,1H3/t14-,15+,16-/m0/s1

>  <InChIKey>  (16) 
XXIFNRNIQJKFLP-XHSDSOJGSA-N

>  <SMILES>  (16) 
CC1=CC[C@]2(C[C@@H]1[C@H](OC2)c3ccc(cc3)O)CO

>  <MissingHeavyAtoms>  (16) 
0

>  <Model>  (16) 
1

>  <AltIds>  (16) 


>  <pKI>  (16) 
5.74

>  <ChemblID>  (16) 
-

>  <standardized_canonical_smiles>  (16) 
CC1=CC[C@]2(CO)CO[C@H](c3ccc(O)cc3)[C@H]1C2

$$$$
2FAI_459_B_201
     RDKit          3D

 20 22  0  0  0  0  0  0  0  0999 V2000
   -2.7190   -7.1830   18.7340 C   0  0  0  0  0  0  0  0  0  0  0  0
   -2.1500   -8.1240   19.8110 C   0  0  0  0  0  0  0  0  0  0  0  0
   -1.6640   -7.3040   21.0070 C   0  0  0  0  0  0  0  0  0  0  0  0
   -2.9080   -6.6340   21.5520 C   0  0  0  0  0  0  0  0  0  0  0  0
   -2.8410   -5.2000   22.0870 C   0  0  0  0  0  0  0  0  0  0  0  0
   -4.1060   -7.3510   21.5290 C   0  0  0  0  0  0  0  0  0  0  0  0
   -4.3020   -8.6590   21.0570 C   0  0  0  0  0  0  0  0  0  0  0  0
   -3.0770   -9.2390   20.3200 C   0  0  0  0  0  0  0  0  0  0  0  0
   -3.5340  -10.1510   19.1740 C   0  0  0  0  0  0  0  0  0  0  0  0
   -4.7740   -9.6790   18.6260 O   0  0  0  0  0  0  0  0  0  0  0  0
   -2.2880  -10.0830   21.3000 C   0  0  0  0  0  0  0  0  0  0  0  0
   -1.9690   -9.2610   22.4430 O   0  0  0  0  0  0  0  0  0  0  0  0
   -1.0410   -8.2210   22.0960 C   0  0  0  0  0  0  0  0  0  0  0  0
   -0.6280   -7.5120   23.4040 C   0  0  0  0  0  0  0  0  0  0  0  0
   -1.4740   -7.4170   24.5040 C   0  0  0  0  0  0  0  0  0  0  0  0
   -1.0620   -6.7720   25.6700 C   0  0  0  0  0  0  0  0  0  0  0  0
    0.2090   -6.2130   25.7350 C   0  0  0  0  0  0  0  0  0  0  0  0
    0.6570   -5.5820   26.8520 O   0  0  0  0  0  0  0  0  0  0  0  0
    1.0520   -6.3140   24.6400 C   0  0  0  0  0  0  0  0  0  0  0  0
    0.6360   -6.9550   23.4850 C   0  0  0  0  0  0  0  0  0  0  0  0
  2  1  1  0
  3  2  1  0
  8  2  1  0
  4  3  1  0
 13  3  1  0
  5  4  1  0
  6  4  1  0
  7  6  1  0
  8  7  1  0
  9  8  1  0
 11  8  1  0
 10  9  1  0
 12 11  1  0
 13 12  1  0
 14 13  1  0
 15 14  2  0
 20 14  1  0
 16 15  1  0
 17 16  2  0
 18 17  1  0
 19 17  1  0
 20 19  2  0
A    1
CAT
A    2
CAK
A    3
CAJ
A    4
CAN
A    5
CAQ
A    6
CAP
A    7
CAO
A    8
CAL
A    9
CAR
A   10
OAS
A   11
CAM
A   12
OAH
A   13
CAI
A   14
CAD
A   15
CAC
A   16
CAB
A   17
CAA
A   18
OAG
A   19
CAF
A   20
CAE
M  END
>  <Id>  (17) 
2FAI_459_B_201

>  <ChainId>  (17) 
B

>  <AsymId>  (17) 
F

>  <SeqNum>  (17) 
201

>  <Name>  (17) 
4-[(1S,2S,5S,9R)-5-(HYDROXYMETHYL)-8,9-DIMETHYL-3-OXABICYCLO[3.3.1]NON-7-EN-2-YL]PHENOL

>  <SystematicName>  (17) 
4-[(1R,2S,5S,9R)-5-(hydroxymethyl)-8,9-dimethyl-3-oxabicyclo[3.3.1]nonan-2-yl]phenol

>  <Synonyms>  (17) 


>  <Type>  (17) 
NON-POLYMER

>  <Formula>  (17) 
C17 H24 O3

>  <ObservedFormula>  (17) 
C17 O3

>  <MolecularWeight>  (17) 
276.371

>  <ModifiedDate>  (17) 
2011-06-04

>  <Parent>  (17) 


>  <OneLetterCode>  (17) 


>  <SubcomponentList>  (17) 


>  <AmbiguousFlag>  (17) 
N

>  <InsertionCode>  (17) 


>  <InstanceId>  (17) 
2FAI_459_B_201

>  <ChemCompId>  (17) 
459

>  <PdbId>  (17) 
2FAI

>  <ResidueNumber>  (17) 
201

>  <InChI>  (17) 
InChI=1S/C17H24O3/c1-11-7-8-17(9-18)10-20-16(15(11)12(17)2)13-3-5-14(19)6-4-13/h3-6,11-12,15-16,18-19H,7-10H2,1-2H3/t11-,12+,15+,16+,17-/m0/s1

>  <InChIKey>  (17) 
YMSZEVAWRFDVQX-GHVWTTSJSA-N

>  <SMILES>  (17) 
CC1CC[C@@]2(CO[C@@H]([C@H]1[C@H]2C)c3ccc(cc3)O)CO

>  <MissingHeavyAtoms>  (17) 
0

>  <Model>  (17) 
1

>  <AltIds>  (17) 


>  <pKI>  (17) 
6.24

>  <ChemblID>  (17) 
-

>  <standardized_canonical_smiles>  (17) 
CC1CC[C@]2(CO)CO[C@H](c3ccc(O)cc3)[C@H]1[C@@H]2C

$$$$
1ZKY_689_B_801
     RDKit          3D

 21 23  0  0  0  0  0  0  0  0999 V2000
  -32.8480   -7.3610   19.8810 C   0  0  0  0  0  0  0  0  0  0  0  0
  -32.9550   -5.9320   19.4080 C   0  0  0  0  0  0  0  0  0  0  0  0
  -32.5550   -4.9840   20.5140 C   0  0  0  0  0  0  0  0  0  0  0  0
  -33.2910   -3.5950   20.3890 C   0  0  0  0  0  0  0  0  0  0  0  0
  -33.2020   -2.5180   21.4580 C   0  0  0  0  0  0  0  0  0  0  0  0
  -34.0890   -3.2890   19.3140 C   0  0  0  0  0  0  0  0  0  0  0  0
  -34.2410   -4.3170   18.2390 C   0  0  0  0  0  0  0  0  0  0  0  0
  -32.9370   -4.2900   17.4650 C   0  0  0  0  0  0  0  0  0  0  0  0
  -34.3660   -5.5770   19.0370 C   0  0  0  0  0  0  0  0  0  0  0  0
  -35.1420   -6.6730   18.2880 C   0  0  0  0  0  0  0  0  0  0  0  0
  -34.4590   -7.1440   17.1420 O   0  0  0  0  0  0  0  0  0  0  0  0
  -35.1050   -5.2040   20.3470 C   0  0  0  0  0  0  0  0  0  0  0  0
  -34.4100   -5.1540   21.6510 O   0  0  0  0  0  0  0  0  0  0  0  0
  -33.0510   -5.6560   21.7400 C   0  0  0  0  0  0  0  0  0  0  0  0
  -32.1370   -5.1050   22.8310 C   0  0  0  0  0  0  0  0  0  0  0  0
  -30.7760   -5.0200   22.5900 C   0  0  0  0  0  0  0  0  0  0  0  0
  -29.9100   -4.5260   23.5340 C   0  0  0  0  0  0  0  0  0  0  0  0
  -30.4350   -4.1070   24.7410 C   0  0  0  0  0  0  0  0  0  0  0  0
  -29.6290   -3.6130   25.6700 O   0  0  0  0  0  0  0  0  0  0  0  0
  -31.7910   -4.1780   24.9930 C   0  0  0  0  0  0  0  0  0  0  0  0
  -32.6490   -4.6790   24.0370 C   0  0  0  0  0  0  0  0  0  0  0  0
  2  1  1  0
  3  2  1  0
  9  2  1  0
  4  3  1  0
 14  3  1  0
  5  4  1  0
  6  4  2  0
  7  6  1  0
  8  7  1  0
  9  7  1  0
 10  9  1  0
 12  9  1  0
 11 10  1  0
 13 12  1  0
 14 13  1  0
 15 14  1  0
 16 15  2  0
 21 15  1  0
 17 16  1  0
 18 17  2  0
 19 18  1  0
 20 18  1  0
 21 20  2  0
A    1
CAN
A    2
CAK
A    3
CAJ
A    4
CAO
A    5
CAR
A    6
CAQ
A    7
CAP
A    8
CAS
A    9
CAL
A   10
CAT
A   11
OAU
A   12
CAM
A   13
OAH
A   14
CAI
A   15
CAD
A   16
CAC
A   17
CAB
A   18
CAA
A   19
OAG
A   20
CAF
A   21
CAE
M  END
>  <Id>  (18) 
1ZKY_689_B_801

>  <ChainId>  (18) 
B

>  <AsymId>  (18) 
F

>  <SeqNum>  (18) 
801

>  <Name>  (18) 
4-[(1S,2S,5S)-5-(HYDROXYMETHYL)-6,8,9-TRIMETHYL-3-OXABICYCLO[3.3.1]NON-7-EN-2-YL]PHENOL

>  <SystematicName>  (18) 
4-[(1S,2S,5S,6S,9S)-5-(hydroxymethyl)-6,8,9-trimethyl-3-oxabicyclo[3.3.1]non-7-en-2-yl]phenol

>  <Synonyms>  (18) 


>  <Type>  (18) 
NON-POLYMER

>  <Formula>  (18) 
C18 H24 O3

>  <ObservedFormula>  (18) 
C18 O3

>  <MolecularWeight>  (18) 
288.381

>  <ModifiedDate>  (18) 
2011-06-04

>  <Parent>  (18) 


>  <OneLetterCode>  (18) 


>  <SubcomponentList>  (18) 


>  <AmbiguousFlag>  (18) 
N

>  <InsertionCode>  (18) 


>  <InstanceId>  (18) 
1ZKY_689_B_801

>  <ChemCompId>  (18) 
689

>  <PdbId>  (18) 
1ZKY

>  <ResidueNumber>  (18) 
801

>  <InChI>  (18) 
InChI=1S/C18H24O3/c1-11-8-12(2)18(9-19)10-21-17(16(11)13(18)3)14-4-6-15(20)7-5-14/h4-8,12-13,16-17,19-20H,9-10H2,1-3H3/t12-,13-,16+,17+,18-/m0/s1

>  <InChIKey>  (18) 
DTZWKYVREFMAJA-QXWBOSQLSA-N

>  <SMILES>  (18) 
C[C@H]1C=C([C@@H]2[C@@H]([C@]1(CO[C@@H]2c3ccc(cc3)O)CO)C)C

>  <MissingHeavyAtoms>  (18) 
0

>  <Model>  (18) 
1

>  <AltIds>  (18) 


>  <pKI>  (18) 
6.25

>  <ChemblID>  (18) 
-

>  <standardized_canonical_smiles>  (18) 
CC1=C[C@@H](C)[C@]2(CO)CO[C@H](c3ccc(O)cc3)[C@H]1[C@H]2C

$$$$
2R6W_LLB_B_1
     RDKit          3D

 35 39  0  0  0  0  0  0  0  0999 V2000
   25.6210   25.4020   68.6690 C   0  0  0  0  0  0  0  0  0  0  0  0
   26.5100   24.3560   68.2380 C   0  0  0  0  0  0  0  0  0  0  0  0
   25.9200   23.1100   67.9310 C   0  0  0  0  0  0  0  0  0  0  0  0
   30.2390   26.6650   56.8070 C   0  0  0  0  0  0  0  0  0  0  0  0
   27.3830   27.2950   69.0000 C   0  0  0  0  0  0  0  0  0  0  0  0
   29.5590   27.8280   65.3150 C   0  0  0  0  0  0  0  0  0  0  0  0
   30.2840   27.8990   66.5450 C   0  0  0  0  0  0  0  0  0  0  0  0
   29.5800   27.7140   67.7840 C   0  0  0  0  0  0  0  0  0  0  0  0
   31.0740   27.1860   63.5780 C   0  0  0  0  0  0  0  0  0  0  0  0
   27.8180   27.7300   70.0460 O   0  0  0  0  0  0  0  0  0  0  0  0
   26.0000   26.7460   69.0280 C   0  0  0  0  0  0  0  0  0  0  0  0
   24.8500   27.5650   69.4160 C   0  0  0  0  0  0  0  0  0  0  0  0
   24.8840   28.9570   69.9150 C   0  0  0  0  0  0  0  0  0  0  0  0
   25.5360   29.9940   69.2290 C   0  0  0  0  0  0  0  0  0  0  0  0
   25.5720   31.3070   69.7400 C   0  0  0  0  0  0  0  0  0  0  0  0
   24.9390   31.5680   70.9650 C   0  0  0  0  0  0  0  0  0  0  0  0
   24.9750   32.8430   71.4810 O   0  0  0  0  0  0  0  0  0  0  0  0
   24.2870   30.5310   71.6930 C   0  0  0  0  0  0  0  0  0  0  0  0
   24.2550   29.2130   71.1500 C   0  0  0  0  0  0  0  0  0  0  0  0
   23.4400   26.6540   69.3530 S   0  0  0  0  0  0  0  0  0  0  0  0
   24.2360   25.2080   68.8210 C   0  0  0  0  0  0  0  0  0  0  0  0
   23.6550   23.9700   68.5310 C   0  0  0  0  0  0  0  0  0  0  0  0
   24.5110   22.9360   68.0850 C   0  0  0  0  0  0  0  0  0  0  0  0
   23.8720   21.7760   67.8120 O   0  0  0  0  0  0  0  0  0  0  0  0
   28.1720   27.4640   67.7430 C   0  0  0  0  0  0  0  0  0  0  0  0
   28.1960   27.5990   65.2950 C   0  0  0  0  0  0  0  0  0  0  0  0
   27.5030   27.4160   66.4690 C   0  0  0  0  0  0  0  0  0  0  0  0
   30.0280   27.9810   64.0190 O   0  0  0  0  0  0  0  0  0  0  0  0
   31.4860   27.9380   62.3220 C   0  0  0  0  0  0  0  0  0  0  0  0
   31.2340   27.2690   61.0730 N   0  0  0  0  0  0  0  0  0  0  0  0
   29.7830   27.3620   60.7010 C   0  0  0  0  0  0  0  0  0  0  0  0
   29.4970   26.7540   59.2900 C   0  0  0  0  0  0  0  0  0  0  0  0
   30.5090   27.2570   58.2120 C   0  0  0  0  0  0  0  0  0  0  0  0
   31.9080   26.8810   58.6570 C   0  0  0  0  0  0  0  0  0  0  0  0
   32.1440   27.6820   59.9450 C   0  0  0  0  0  0  0  0  0  0  0  0
  2  1  2  0
 11  1  1  0
 21  1  1  0
  3  2  1  0
 23  3  2  0
 33  4  1  0
 10  5  2  0
 11  5  1  0
 25  5  1  0
  7  6  2  0
 26  6  1  0
 28  6  1  0
  8  7  1  0
 25  8  2  0
 28  9  1  0
 29  9  1  0
 12 11  2  0
 13 12  1  0
 20 12  1  0
 14 13  2  0
 19 13  1  0
 15 14  1  0
 16 15  2  0
 17 16  1  0
 18 16  1  0
 19 18  2  0
 21 20  1  0
 22 21  2  0
 23 22  1  0
 24 23  1  0
 27 25  1  0
 27 26  2  0
 30 29  1  0
 31 30  1  0
 35 30  1  0
 32 31  1  0
 33 32  1  0
 34 33  1  0
 35 34  1  0
A    1
C4
A    2
C5
A    3
C6
A    4
C7
A    5
C15
A    6
C20
A    7
C21
A    8
C22
A    9
C28
A   10
O17
A   11
C12
A   12
C11
A   13
C14
A   14
C54
A   15
C53
A   16
C52
A   17
O59
A   18
C51
A   19
C50
A   20
S10
A   21
C3
A   22
C2
A   23
C1
A   24
O13
A   25
C16
A   26
C19
A   27
C18
A   28
O27
A   29
C29
A   30
N61
A   31
C66
A   32
C65
A   33
C64
A   34
C63
A   35
C62
M  END
>  <Id>  (19) 
2R6W_LLB_B_1

>  <ChainId>  (19) 
B

>  <AsymId>  (19) 
D

>  <SeqNum>  (19) 
1

>  <Name>  (19) 
[6-hydroxy-2-(4-hydroxyphenyl)-1-benzothien-3-yl]{4-[2-(4-methylpiperidin-1-yl)ethoxy]phenyl}methanone

>  <SystematicName>  (19) 
[6-hydroxy-2-(4-hydroxyphenyl)-1-benzothiophen-3-yl]-[4-[2-(4-methylpiperidin-1-yl)ethoxy]phenyl]methanone

>  <Synonyms>  (19) 


>  <Type>  (19) 
NON-POLYMER

>  <Formula>  (19) 
C29 H29 N O4 S

>  <ObservedFormula>  (19) 
C29 S N O4

>  <MolecularWeight>  (19) 
487.61

>  <ModifiedDate>  (19) 
2011-06-04

>  <Parent>  (19) 


>  <OneLetterCode>  (19) 


>  <SubcomponentList>  (19) 


>  <AmbiguousFlag>  (19) 


>  <InsertionCode>  (19) 


>  <InstanceId>  (19) 
2R6W_LLB_B_1

>  <ChemCompId>  (19) 
LLB

>  <PdbId>  (19) 
2R6W

>  <ResidueNumber>  (19) 
1

>  <InChI>  (19) 
InChI=1S/C29H29NO4S/c1-19-12-14-30(15-13-19)16-17-34-24-9-4-20(5-10-24)28(33)27-25-11-8-23(32)18-26(25)35-29(27)21-2-6-22(31)7-3-21/h2-11,18-19,31-32H,12-17H2,1H3

>  <InChIKey>  (19) 
RLOZWABDAGQFIY-UHFFFAOYSA-N

>  <SMILES>  (19) 
CC1CCN(CC1)CCOc2ccc(cc2)C(=O)c3c4ccc(cc4sc3c5ccc(cc5)O)O

>  <MissingHeavyAtoms>  (19) 
0

>  <Model>  (19) 
1

>  <AltIds>  (19) 


>  <pKI>  (19) 
9.36

>  <ChemblID>  (19) 
-

>  <standardized_canonical_smiles>  (19) 
CC1CCN(CCOc2ccc(C(=O)c3c(-c4ccc(O)cc4)sc4cc(O)ccc34)cc2)CC1

$$$$
2R6Y_LLC_B_1
     RDKit          3D

 33 37  0  0  0  0  0  0  0  0999 V2000
   23.6000   20.4520   14.8550 C   0  0  0  0  0  0  0  0  0  0  0  0
   23.6040   19.1740   14.3270 C   0  0  0  0  0  0  0  0  0  0  0  0
   24.2080   18.1350   15.0390 C   0  0  0  0  0  0  0  0  0  0  0  0
   24.8070   18.3350   16.2780 C   0  0  0  0  0  0  0  0  0  0  0  0
   25.9100   25.2780   17.8370 C   0  0  0  0  0  0  0  0  0  0  0  0
   24.0390   26.7880   18.0740 C   0  0  0  0  0  0  0  0  0  0  0  0
   27.3430   22.0440   18.2610 C   0  0  0  0  0  0  0  0  0  0  0  0
   26.6000   22.1220   19.4420 C   0  0  0  0  0  0  0  0  0  0  0  0
   27.2450   21.8810   20.6350 C   0  0  0  0  0  0  0  0  0  0  0  0
   30.6070   20.6720   23.6300 C   0  0  0  0  0  0  0  0  0  0  0  0
   31.1350   21.5080   25.8010 C   0  0  0  0  0  0  0  0  0  0  0  0
   27.1640   22.0170   15.9270 O   0  0  0  0  0  0  0  0  0  0  0  0
   26.6420   22.3030   16.9750 C   0  0  0  0  0  0  0  0  0  0  0  0
   28.7140   21.7100   18.3180 C   0  0  0  0  0  0  0  0  0  0  0  0
   29.3600   21.4770   19.5170 C   0  0  0  0  0  0  0  0  0  0  0  0
   28.6110   21.5510   20.6940 C   0  0  0  0  0  0  0  0  0  0  0  0
   29.0930   21.3500   21.9630 O   0  0  0  0  0  0  0  0  0  0  0  0
   30.4740   21.0560   22.1420 C   0  0  0  0  0  0  0  0  0  0  0  0
   30.4980   21.8530   24.4950 N   0  0  0  0  0  0  0  0  0  0  0  0
   29.0830   22.2030   24.7410 C   0  0  0  0  0  0  0  0  0  0  0  0
   28.9730   22.6060   26.2290 C   0  0  0  0  0  0  0  0  0  0  0  0
   30.0770   21.7260   26.9030 C   0  0  0  0  0  0  0  0  0  0  0  0
   25.2920   22.8610   16.9660 C   0  0  0  0  0  0  0  0  0  0  0  0
   25.0230   24.2570   17.3750 C   0  0  0  0  0  0  0  0  0  0  0  0
   25.4110   26.5260   18.1580 C   0  0  0  0  0  0  0  0  0  0  0  0
   23.4340   27.9560   18.3900 O   0  0  0  0  0  0  0  0  0  0  0  0
   23.1700   25.7920   17.6640 C   0  0  0  0  0  0  0  0  0  0  0  0
   23.6410   24.5710   17.3260 C   0  0  0  0  0  0  0  0  0  0  0  0
   22.7950   23.1180   16.7540 S   0  0  0  0  0  0  0  0  0  0  0  0
   24.1930   22.0520   16.5920 C   0  0  0  0  0  0  0  0  0  0  0  0
   24.2020   20.6720   16.1010 C   0  0  0  0  0  0  0  0  0  0  0  0
   24.8050   19.6140   16.8060 C   0  0  0  0  0  0  0  0  0  0  0  0
   24.2170   16.8840   14.5000 O   0  0  0  0  0  0  0  0  0  0  0  0
  2  1  2  0
 31  1  1  0
  3  2  1  0
  4  3  2  0
 33  3  1  0
 32  4  1  0
 24  5  2  0
 25  5  1  0
 25  6  2  0
 26  6  1  0
 27  6  1  0
  8  7  2  0
 13  7  1  0
 14  7  1  0
  9  8  1  0
 16  9  2  0
 18 10  1  0
 19 10  1  0
 19 11  1  0
 22 11  1  0
 13 12  2  0
 23 13  1  0
 15 14  2  0
 16 15  1  0
 17 16  1  0
 18 17  1  0
 20 19  1  0
 21 20  1  0
 22 21  1  0
 24 23  1  0
 30 23  2  0
 28 24  1  0
 28 27  2  0
 29 28  1  0
 30 29  1  0
 31 30  1  0
 32 31  2  0
A    1
C4
A    2
C5
A    3
C6
A    4
C8
A    5
C13
A    6
C15
A    7
C20
A    8
C21
A    9
C22
A   10
C26
A   11
C28
A   12
O19
A   13
C18
A   14
C33
A   15
C32
A   16
C23
A   17
O24
A   18
C25
A   19
N27
A   20
C31
A   21
C30
A   22
C29
A   23
C1
A   24
C12
A   25
C14
A   26
O17
A   27
C16
A   28
C11
A   29
S10
A   30
C2
A   31
C3
A   32
C9
A   33
O7
M  END
>  <Id>  (20) 
2R6Y_LLC_B_1

>  <ChainId>  (20) 
B

>  <AsymId>  (20) 
D

>  <SeqNum>  (20) 
1

>  <Name>  (20) 
[6-hydroxy-2-(4-hydroxyphenyl)-1-benzothien-3-yl][4-(2-pyrrolidin-1-ylethoxy)phenyl]methanone

>  <SystematicName>  (20) 
[6-hydroxy-2-(4-hydroxyphenyl)-1-benzothiophen-3-yl]-[4-(2-pyrrolidin-1-ylethoxy)phenyl]methanone

>  <Synonyms>  (20) 


>  <Type>  (20) 
NON-POLYMER

>  <Formula>  (20) 
C27 H25 N O4 S

>  <ObservedFormula>  (20) 
C27 S N O4

>  <MolecularWeight>  (20) 
459.557

>  <ModifiedDate>  (20) 
2011-06-04

>  <Parent>  (20) 


>  <OneLetterCode>  (20) 


>  <SubcomponentList>  (20) 


>  <AmbiguousFlag>  (20) 


>  <InsertionCode>  (20) 


>  <InstanceId>  (20) 
2R6Y_LLC_B_1

>  <ChemCompId>  (20) 
LLC

>  <PdbId>  (20) 
2R6Y

>  <ResidueNumber>  (20) 
1

>  <InChI>  (20) 
InChI=1S/C27H25NO4S/c29-20-7-3-19(4-8-20)27-25(23-12-9-21(30)17-24(23)33-27)26(31)18-5-10-22(11-6-18)32-16-15-28-13-1-2-14-28/h3-12,17,29-30H,1-2,13-16H2

>  <InChIKey>  (20) 
JLERVPBPJHKRBJ-UHFFFAOYSA-N

>  <SMILES>  (20) 
c1cc(ccc1c2c(c3ccc(cc3s2)O)C(=O)c4ccc(cc4)OCCN5CCCC5)O

>  <MissingHeavyAtoms>  (20) 
0

>  <Model>  (20) 
1

>  <AltIds>  (20) 


>  <pKI>  (20) 
9.49

>  <ChemblID>  (20) 
-

>  <standardized_canonical_smiles>  (20) 
O=C(c1ccc(OCCN2CCCC2)cc1)c1c(-c2ccc(O)cc2)sc2cc(O)ccc12

$$$$
2POG_WST_B_301
     RDKit          3D

 21 24  0  0  0  0  0  0  0  0999 V2000
   27.2710   28.9120   69.5970 C   0  0  0  0  0  0  0  0  0  0  0  0
   27.6720   30.2050   70.1440 C   0  0  0  0  0  0  0  0  0  0  0  0
   28.6120   30.9370   69.6590 O   0  0  0  0  0  0  0  0  0  0  0  0
   26.9320   30.6380   71.3020 C   0  0  0  0  0  0  0  0  0  0  0  0
   25.8790   29.8800   71.8920 C   0  0  0  0  0  0  0  0  0  0  0  0
   25.5130   28.6360   71.3400 C   0  0  0  0  0  0  0  0  0  0  0  0
   26.2010   28.1550   70.2020 C   0  0  0  0  0  0  0  0  0  0  0  0
   25.7800   26.9310   69.7180 O   0  0  0  0  0  0  0  0  0  0  0  0
   26.8340   26.0960   69.1510 C   0  0  0  0  0  0  0  0  0  0  0  0
   27.6070   26.8400   68.0120 C   0  0  0  0  0  0  0  0  0  0  0  0
   27.9730   28.3170   68.3610 C   0  0  0  0  0  0  0  0  0  0  0  0
   27.6890   29.1190   67.0710 C   0  0  0  0  0  0  0  0  0  0  0  0
   27.6120   28.0810   65.9700 C   0  0  0  0  0  0  0  0  0  0  0  0
   26.8900   26.9370   66.6530 C   0  0  0  0  0  0  0  0  0  0  0  0
   26.2830   24.7350   68.7140 C   0  0  0  0  0  0  0  0  0  0  0  0
   24.8690   24.5180   68.6810 C   0  0  0  0  0  0  0  0  0  0  0  0
   24.3350   23.2670   68.2720 C   0  0  0  0  0  0  0  0  0  0  0  0
   25.1600   22.1600   67.8710 C   0  0  0  0  0  0  0  0  0  0  0  0
   24.6770   21.0430   67.5010 O   0  0  0  0  0  0  0  0  0  0  0  0
   26.5640   22.4060   67.9190 C   0  0  0  0  0  0  0  0  0  0  0  0
   27.1270   23.6520   68.3260 C   0  0  0  0  0  0  0  0  0  0  0  0
  2  1  2  0
  7  1  1  0
 11  1  1  0
  3  2  1  0
  4  2  1  0
  5  4  2  0
  6  5  1  0
  7  6  2  0
  8  7  1  0
  9  8  1  0
 10  9  1  0
 15  9  1  0
 11 10  1  0
 14 10  1  0
 12 11  1  0
 13 12  1  0
 14 13  1  0
 16 15  2  0
 21 15  1  0
 17 16  1  0
 18 17  2  0
 19 18  1  0
 20 18  1  0
 21 20  2  0
A    1
C1
A    2
C2
A    3
O3
A    4
C4
A    5
C5
A    6
C6
A    7
C7
A    8
O8
A    9
C9
A   10
C11
A   11
C13
A   12
C15
A   13
C16
A   14
C17
A   15
C18
A   16
C19
A   17
C20
A   18
C21
A   19
O22
A   20
C23
A   21
C24
M  END
>  <Id>  (21) 
2POG_WST_B_301

>  <ChainId>  (21) 
B

>  <AsymId>  (21) 
D

>  <SeqNum>  (21) 
301

>  <Name>  (21) 
(3AS,4R,9BR)-4-(4-HYDROXYPHENYL)-1,2,3,3A,4,9B-HEXAHYDROCYCLOPENTA[C]CHROMEN-9-OL

>  <SystematicName>  (21) 
(3aS,4R,9bR)-4-(4-hydroxyphenyl)-1,2,3,3a,4,9b-hexahydrocyclopenta[c]chromen-9-ol

>  <Synonyms>  (21) 


>  <Type>  (21) 
NON-POLYMER

>  <Formula>  (21) 
C18 H18 O3

>  <ObservedFormula>  (21) 
C18 O3

>  <MolecularWeight>  (21) 
282.334

>  <ModifiedDate>  (21) 
2011-06-04

>  <Parent>  (21) 


>  <OneLetterCode>  (21) 


>  <SubcomponentList>  (21) 


>  <AmbiguousFlag>  (21) 


>  <InsertionCode>  (21) 


>  <InstanceId>  (21) 
2POG_WST_B_301

>  <ChemCompId>  (21) 
WST

>  <PdbId>  (21) 
2POG

>  <ResidueNumber>  (21) 
301

>  <InChI>  (21) 
InChI=1S/C18H18O3/c19-12-9-7-11(8-10-12)18-14-4-1-3-13(14)17-15(20)5-2-6-16(17)21-18/h2,5-10,13-14,18-20H,1,3-4H2/t13-,14+,18+/m1/s1

>  <InChIKey>  (21) 
FSYFYSFYUHBIHE-GLJUWKHASA-N

>  <SMILES>  (21) 
c1cc(c2c(c1)O[C@H]([C@@H]3[C@H]2CCC3)c4ccc(cc4)O)O

>  <MissingHeavyAtoms>  (21) 
0

>  <Model>  (21) 
1

>  <AltIds>  (21) 


>  <pKI>  (21) 
9.51

>  <ChemblID>  (21) 
-

>  <standardized_canonical_smiles>  (21) 
Oc1ccc([C@@H]2Oc3cccc(O)c3[C@@H]3CCC[C@@H]32)cc1

$$$$
1X7R_GEN_A_201
     RDKit          3D

 20 22  0  0  0  0  0  0  0  0999 V2000
   17.1540   31.9200   25.8150 C   0  0  0  0  0  0  0  0  0  0  0  0
   17.7070   33.1970   26.1030 C   0  0  0  0  0  0  0  0  0  0  0  0
   18.2780   33.3320   27.3670 O   0  0  0  0  0  0  0  0  0  0  0  0
   17.7040   34.3040   25.1930 C   0  0  0  0  0  0  0  0  0  0  0  0
   17.1140   34.1500   23.8990 C   0  0  0  0  0  0  0  0  0  0  0  0
   17.0820   35.1890   22.9880 O   0  0  0  0  0  0  0  0  0  0  0  0
   16.5400   32.8450   23.5790 C   0  0  0  0  0  0  0  0  0  0  0  0
   15.9120   32.6250   22.2390 C   0  0  0  0  0  0  0  0  0  0  0  0
   15.8430   33.4840   21.3710 O   0  0  0  0  0  0  0  0  0  0  0  0
   15.3580   31.2140   22.0270 C   0  0  0  0  0  0  0  0  0  0  0  0
   15.4410   30.2340   23.0300 C   0  0  0  0  0  0  0  0  0  0  0  0
   16.0360   30.4740   24.2960 O   0  0  0  0  0  0  0  0  0  0  0  0
   16.5550   31.7350   24.5220 C   0  0  0  0  0  0  0  0  0  0  0  0
   14.6820   30.7120   20.7190 C   0  0  0  0  0  0  0  0  0  0  0  0
   15.2530   31.1030   19.4560 C   0  0  0  0  0  0  0  0  0  0  0  0
   14.6080   30.5730   18.2940 C   0  0  0  0  0  0  0  0  0  0  0  0
   13.5010   29.7340   18.4320 C   0  0  0  0  0  0  0  0  0  0  0  0
   12.9460   29.2580   17.2410 O   0  0  0  0  0  0  0  0  0  0  0  0
   12.8950   29.3240   19.6740 C   0  0  0  0  0  0  0  0  0  0  0  0
   13.5350   29.8510   20.8720 C   0  0  0  0  0  0  0  0  0  0  0  0
  2  1  2  0
 13  1  1  0
  3  2  1  0
  4  2  1  0
  5  4  2  0
  6  5  1  0
  7  5  1  0
  8  7  1  0
 13  7  2  0
  9  8  2  0
 10  8  1  0
 11 10  2  0
 14 10  1  0
 12 11  1  0
 13 12  1  0
 15 14  2  0
 20 14  1  0
 16 15  1  0
 17 16  2  0
 18 17  1  0
 19 17  1  0
 20 19  2  0
A    1
C1
A    2
C2
A    3
O2
A    4
C3
A    5
C4
A    6
O4
A    7
C5
A    8
C6
A    9
O6
A   10
C7
A   11
C8
A   12
O9
A   13
C10
A   14
C11
A   15
C12
A   16
C13
A   17
C14
A   18
O14
A   19
C15
A   20
C16
M  END
>  <Id>  (22) 
1X7R_GEN_A_201

>  <ChainId>  (22) 
A

>  <AsymId>  (22) 
C

>  <SeqNum>  (22) 
201

>  <Name>  (22) 
GENISTEIN

>  <SystematicName>  (22) 
5,7-dihydroxy-3-(4-hydroxyphenyl)chromen-4-one

>  <Synonyms>  (22) 
5,7-DIHYDROXY-3-(4-HYDROXYPHENYL)-4H-1-BENZOPYRAN-4-ONE; 4',5,7-TRIHYDROXYISOFLAVONE; PRUNETOL; GENISTEOL

>  <Type>  (22) 
NON-POLYMER

>  <Formula>  (22) 
C15 H10 O5

>  <ObservedFormula>  (22) 
C15 O5

>  <MolecularWeight>  (22) 
270.237

>  <ModifiedDate>  (22) 
2011-06-04

>  <Parent>  (22) 


>  <OneLetterCode>  (22) 


>  <SubcomponentList>  (22) 


>  <AmbiguousFlag>  (22) 
N

>  <InsertionCode>  (22) 


>  <InstanceId>  (22) 
1X7R_GEN_A_201

>  <ChemCompId>  (22) 
GEN

>  <PdbId>  (22) 
1X7R

>  <ResidueNumber>  (22) 
201

>  <InChI>  (22) 
InChI=1S/C15H10O5/c16-9-3-1-8(2-4-9)11-7-20-13-6-10(17)5-12(18)14(13)15(11)19/h1-7,16-18H

>  <InChIKey>  (22) 
TZBJGXHYKVUXJN-UHFFFAOYSA-N

>  <SMILES>  (22) 
c1cc(ccc1C2=COc3cc(cc(c3C2=O)O)O)O

>  <MissingHeavyAtoms>  (22) 
0

>  <Model>  (22) 
1

>  <AltIds>  (22) 


>  <pKI>  (22) 
6.43

>  <ChemblID>  (22) 
-

>  <standardized_canonical_smiles>  (22) 
O=c1c(-c2ccc(O)cc2)coc2cc(O)cc(O)c12

$$$$
2QA8_GEN_B_600
     RDKit          3D

 20 22  0  0  0  0  0  0  0  0999 V2000
   -1.1910    3.0970   -6.2020 C   0  0  0  0  0  0  0  0  0  0  0  0
   -1.8580    3.7670   -5.1930 C   0  0  0  0  0  0  0  0  0  0  0  0
   -3.1840    3.5360   -5.0200 O   0  0  0  0  0  0  0  0  0  0  0  0
   -1.1840    4.6860   -4.3780 C   0  0  0  0  0  0  0  0  0  0  0  0
    0.1710    4.9280   -4.5750 C   0  0  0  0  0  0  0  0  0  0  0  0
    0.8620    5.8220   -3.8110 O   0  0  0  0  0  0  0  0  0  0  0  0
    0.8440    4.2550   -5.5910 C   0  0  0  0  0  0  0  0  0  0  0  0
    2.3020    4.5150   -5.7960 C   0  0  0  0  0  0  0  0  0  0  0  0
    2.9040    5.3550   -5.0690 O   0  0  0  0  0  0  0  0  0  0  0  0
    2.9700    3.7790   -6.9040 C   0  0  0  0  0  0  0  0  0  0  0  0
    2.2170    2.8750   -7.6520 C   0  0  0  0  0  0  0  0  0  0  0  0
    0.8220    2.6670   -7.4030 O   0  0  0  0  0  0  0  0  0  0  0  0
    0.1640    3.3370   -6.4020 C   0  0  0  0  0  0  0  0  0  0  0  0
    4.4100    3.9220   -7.2630 C   0  0  0  0  0  0  0  0  0  0  0  0
    5.3710    4.3880   -6.3670 C   0  0  0  0  0  0  0  0  0  0  0  0
    6.6830    4.4900   -6.7860 C   0  0  0  0  0  0  0  0  0  0  0  0
    7.0630    4.1020   -8.0790 C   0  0  0  0  0  0  0  0  0  0  0  0
    8.3710    4.1680   -8.4810 O   0  0  0  0  0  0  0  0  0  0  0  0
    6.1010    3.6390   -8.9720 C   0  0  0  0  0  0  0  0  0  0  0  0
    4.7810    3.5550   -8.5570 C   0  0  0  0  0  0  0  0  0  0  0  0
  2  1  2  0
 13  1  1  0
  3  2  1  0
  4  2  1  0
  5  4  2  0
  6  5  1  0
  7  5  1  0
  8  7  1  0
 13  7  2  0
  9  8  2  0
 10  8  1  0
 11 10  2  0
 14 10  1  0
 12 11  1  0
 13 12  1  0
 15 14  2  0
 20 14  1  0
 16 15  1  0
 17 16  2  0
 18 17  1  0
 19 17  1  0
 20 19  2  0
A    1
C1
A    2
C2
A    3
O2
A    4
C3
A    5
C4
A    6
O4
A    7
C5
A    8
C6
A    9
O6
A   10
C7
A   11
C8
A   12
O9
A   13
C10
A   14
C11
A   15
C12
A   16
C13
A   17
C14
A   18
O14
A   19
C15
A   20
C16
M  END
>  <Id>  (23) 
2QA8_GEN_B_600

>  <ChainId>  (23) 
B

>  <AsymId>  (23) 
F

>  <SeqNum>  (23) 
600

>  <Name>  (23) 
GENISTEIN

>  <SystematicName>  (23) 
5,7-dihydroxy-3-(4-hydroxyphenyl)chromen-4-one

>  <Synonyms>  (23) 
5,7-DIHYDROXY-3-(4-HYDROXYPHENYL)-4H-1-BENZOPYRAN-4-ONE; 4',5,7-TRIHYDROXYISOFLAVONE; PRUNETOL; GENISTEOL

>  <Type>  (23) 
NON-POLYMER

>  <Formula>  (23) 
C15 H10 O5

>  <ObservedFormula>  (23) 
C15 O5

>  <MolecularWeight>  (23) 
270.237

>  <ModifiedDate>  (23) 
2011-06-04

>  <Parent>  (23) 


>  <OneLetterCode>  (23) 


>  <SubcomponentList>  (23) 


>  <AmbiguousFlag>  (23) 
N

>  <InsertionCode>  (23) 


>  <InstanceId>  (23) 
2QA8_GEN_B_600

>  <ChemCompId>  (23) 
GEN

>  <PdbId>  (23) 
2QA8

>  <ResidueNumber>  (23) 
600

>  <InChI>  (23) 
InChI=1S/C15H10O5/c16-9-3-1-8(2-4-9)11-7-20-13-6-10(17)5-12(18)14(13)15(11)19/h1-7,16-18H

>  <InChIKey>  (23) 
TZBJGXHYKVUXJN-UHFFFAOYSA-N

>  <SMILES>  (23) 
c1cc(ccc1C2=COc3cc(cc(c3C2=O)O)O)O

>  <MissingHeavyAtoms>  (23) 
0

>  <Model>  (23) 
1

>  <AltIds>  (23) 


>  <pKI>  (23) 
6.43

>  <ChemblID>  (23) 
-

>  <standardized_canonical_smiles>  (23) 
O=c1c(-c2ccc(O)cc2)coc2cc(O)cc(O)c12

$$$$
