4V3U_EG8_D_800
     RDKit          3D

 23 25  0  0  0  0  0  0  0  0999 V2000
  247.3000    4.0180   36.4060 N   0  0  0  0  0  0  0  0  0  0  0  0
  247.6900    5.3040   36.2520 C   0  0  0  0  0  0  0  0  0  0  0  0
  248.9630    5.2870   36.6450 N   0  0  0  0  0  0  0  0  0  0  0  0
  249.4250    4.1020   37.0420 C   0  0  0  0  0  0  0  0  0  0  0  0
  248.3300    3.2690   36.8760 C   0  0  0  0  0  0  0  0  0  0  0  0
  245.9680   17.1550   39.8980 N   0  0  0  0  0  0  0  0  0  0  0  0
  249.1410    7.6020   36.7590 N   0  0  0  0  0  0  0  0  0  0  0  0
  249.7240    6.3780   36.6630 C   0  0  0  0  0  0  0  0  0  0  0  0
  251.0670    6.2350   36.6140 N   0  0  0  0  0  0  0  0  0  0  0  0
  251.8590    7.3140   36.6410 C   0  0  0  0  0  0  0  0  0  0  0  0
  251.2970    8.5850   36.7300 C   0  0  0  0  0  0  0  0  0  0  0  0
  249.9160    8.7100   36.7870 C   0  0  0  0  0  0  0  0  0  0  0  0
  249.2980   10.0800   36.8900 C   0  0  0  0  0  0  0  0  0  0  0  0
  248.0550   10.0240   37.7670 C   0  0  0  0  0  0  0  0  0  0  0  0
  247.4220   11.3500   37.8160 N   0  0  0  0  0  0  0  0  0  0  0  0
  246.6860   16.0690   39.5420 C   0  0  0  0  0  0  0  0  0  0  0  0
  248.4140   12.4200   38.0380 C   0  0  0  0  0  0  0  0  0  0  0  0
  247.6890   13.6880   38.4690 C   0  0  0  0  0  0  0  0  0  0  0  0
  248.5190   14.9390   38.2110 C   0  0  0  0  0  0  0  0  0  0  0  0
  247.7230   16.1640   38.6110 C   0  0  0  0  0  0  0  0  0  0  0  0
  248.0130   17.4020   38.0500 C   0  0  0  0  0  0  0  0  0  0  0  0
  247.2500   18.5080   38.4350 C   0  0  0  0  0  0  0  0  0  0  0  0
  246.2290   18.3620   39.3730 C   0  0  0  0  0  0  0  0  0  0  0  0
  2  1  2  0
  5  1  1  0
  3  2  1  0
  4  3  1  0
  8  3  1  0
  5  4  2  0
 16  6  2  0
 23  6  1  0
  8  7  2  0
 12  7  1  0
  9  8  1  0
 10  9  2  0
 11 10  1  0
 12 11  2  0
 13 12  1  0
 14 13  1  0
 15 14  1  0
 17 15  1  0
 20 16  1  0
 18 17  1  0
 19 18  1  0
 20 19  1  0
 21 20  2  0
 22 21  1  0
 23 22  2  0
A    1
N01
A    2
C02
A    3
N03
A    4
C04
A    5
C05
A    6
N1'
A    7
N11
A    8
C12
A    9
N13
A   10
C14
A   11
C15
A   12
C16
A   13
C17
A   14
C18
A   15
N19
A   16
C2'
A   17
C20
A   18
C21
A   19
C22
A   20
C3'
A   21
C4'
A   22
C5'
A   23
C6'
M  END
>  <Id>  (1) 
4V3U_EG8_D_800

>  <ChainId>  (1) 
D

>  <AsymId>  (1) 
V

>  <SeqNum>  (1) 
800

>  <Name>  (1) 
N-{2-[2-(1H-imidazol-1-yl)pyrimidin-4-yl]ethyl}-3-(pyridin-3-yl)propan-1-amine

>  <SystematicName>  (1) 
N-[2-(2-imidazol-1-ylpyrimidin-4-yl)ethyl]-3-pyridin-3-yl-propan-1-amine

>  <Synonyms>  (1) 
N-2-(2-(1H-imidazol-1-yl)pyrimidin-4-yl)ethyl-3-(pyridin-3-yl)propan-1-amine

>  <Type>  (1) 
NON-POLYMER

>  <Formula>  (1) 
C17 H20 N6

>  <ObservedFormula>  (1) 
C17 N6

>  <MolecularWeight>  (1) 
308.381

>  <ModifiedDate>  (1) 
2017-01-18

>  <Parent>  (1) 


>  <OneLetterCode>  (1) 


>  <SubcomponentList>  (1) 


>  <AmbiguousFlag>  (1) 
N

>  <InsertionCode>  (1) 


>  <InstanceId>  (1) 
4V3U_EG8_D_800

>  <ChemCompId>  (1) 
EG8

>  <PdbId>  (1) 
4V3U

>  <ResidueNumber>  (1) 
800

>  <InChI>  (1) 
InChI=1S/C17H20N6/c1(3-15-4-2-8-19-13-15)7-18-9-5-16-6-10-21-17(22-16)23-12-11-20-14-23/h2,4,6,8,10-14,18H,1,3,5,7,9H2

>  <InChIKey>  (1) 
XOWPXRYZDHLBEA-UHFFFAOYSA-N

>  <SMILES>  (1) 
c1cc(cnc1)CCCNCCc2ccnc(n2)n3ccnc3

>  <MissingHeavyAtoms>  (1) 
0

>  <Model>  (1) 
1

>  <AltIds>  (1) 


>  <pKI>  (1) 
6.9

>  <ChemblID>  (1) 
CHEMBL3407814

>  <standardized_canonical_smiles>  (1) 
c1cncc(CCCNCCc2ccnc(-n3ccnc3)n2)c1

$$$$
4UCH_OLW_B_800
     RDKit          3D

 23 25  0  0  0  0  0  0  0  0999 V2000
  118.0380  247.0160  322.9000 N   0  0  0  0  0  0  0  0  0  0  0  0
  116.8230  246.5890  323.2970 C   0  0  0  0  0  0  0  0  0  0  0  0
  116.6290  245.5150  322.5510 N   0  0  0  0  0  0  0  0  0  0  0  0
  117.5950  245.2300  321.6910 C   0  0  0  0  0  0  0  0  0  0  0  0
  118.5360  246.2120  321.9370 C   0  0  0  0  0  0  0  0  0  0  0  0
  109.3960  247.2850  326.6610 C   0  0  0  0  0  0  0  0  0  0  0  0
  115.1960  243.8550  321.7430 N   0  0  0  0  0  0  0  0  0  0  0  0
  115.5020  244.8220  322.6430 C   0  0  0  0  0  0  0  0  0  0  0  0
  114.6570  245.1640  323.6330 N   0  0  0  0  0  0  0  0  0  0  0  0
  113.4970  244.5190  323.7760 C   0  0  0  0  0  0  0  0  0  0  0  0
  113.1560  243.5210  322.8700 C   0  0  0  0  0  0  0  0  0  0  0  0
  114.0400  243.1960  321.8480 C   0  0  0  0  0  0  0  0  0  0  0  0
  112.5780  244.9470  324.8910 C   0  0  0  0  0  0  0  0  0  0  0  0
  112.4310  246.4510  324.6930 C   0  0  0  0  0  0  0  0  0  0  0  0
  111.5950  247.0590  325.7280 N   0  0  0  0  0  0  0  0  0  0  0  0
  108.5210  248.2590  326.1880 C   0  0  0  0  0  0  0  0  0  0  0  0
  110.2370  246.4990  325.6810 C   0  0  0  0  0  0  0  0  0  0  0  0
  107.7460  248.9980  327.0810 C   0  0  0  0  0  0  0  0  0  0  0  0
  107.8470  248.7650  328.4590 C   0  0  0  0  0  0  0  0  0  0  0  0
  108.7190  247.7860  328.9300 C   0  0  0  0  0  0  0  0  0  0  0  0
  109.4940  247.0480  328.0320 C   0  0  0  0  0  0  0  0  0  0  0  0
  106.9370  249.8960  326.6260 C   0  0  0  0  0  0  0  0  0  0  0  0
  106.2090  250.7040  326.2180 N   0  0  0  0  0  0  0  0  0  0  0  0
  2  1  2  0
  5  1  1  0
  3  2  1  0
  4  3  1  0
  8  3  1  0
  5  4  2  0
 16  6  2  0
 17  6  1  0
 21  6  1  0
  8  7  2  0
 12  7  1  0
  9  8  1  0
 10  9  2  0
 11 10  1  0
 13 10  1  0
 12 11  2  0
 14 13  1  0
 15 14  1  0
 17 15  1  0
 18 16  1  0
 19 18  2  0
 22 18  1  0
 20 19  1  0
 21 20  2  0
 23 22  3  0
A    1
N01
A    2
C02
A    3
N03
A    4
C04
A    5
C05
A    6
C1'
A    7
N11
A    8
C12
A    9
N13
A   10
C14
A   11
C15
A   12
C16
A   13
C17
A   14
C18
A   15
N19
A   16
C2'
A   17
C20
A   18
C3'
A   19
C4'
A   20
C5'
A   21
C6'
A   22
C7'
A   23
N8'
M  END
>  <Id>  (2) 
4UCH_OLW_B_800

>  <ChainId>  (2) 
B

>  <AsymId>  (2) 
I

>  <SeqNum>  (2) 
800

>  <Name>  (2) 
3-[({2-[2-(1H-imidazol-1-yl)pyrimidin-4-yl]ethyl}amino)methyl]benzonitrile

>  <SystematicName>  (2) 
3-[[2-(2-imidazol-1-ylpyrimidin-4-yl)ethylamino]methyl]benzenecarbonitrile

>  <Synonyms>  (2) 
2-[2-(1H-imidazol-1-yl)pyrimidin-4-yl]-N-(3-cyanobenzyl)ethan-1-amine

>  <Type>  (2) 
NON-POLYMER

>  <Formula>  (2) 
C17 H16 N6

>  <ObservedFormula>  (2) 
C17 N6

>  <MolecularWeight>  (2) 
304.349

>  <ModifiedDate>  (2) 
2014-12-19

>  <Parent>  (2) 


>  <OneLetterCode>  (2) 


>  <SubcomponentList>  (2) 


>  <AmbiguousFlag>  (2) 
N

>  <InsertionCode>  (2) 


>  <InstanceId>  (2) 
4UCH_OLW_B_800

>  <ChemCompId>  (2) 
OLW

>  <PdbId>  (2) 
4UCH

>  <ResidueNumber>  (2) 
800

>  <InChI>  (2) 
InChI=1S/C17H16N6/c18-11-14-2-1-3-15(10-14)12-19-6-4-16-5-7-21-17(22-16)23-9-8-20-13-23/h1-3,5,7-10,13,19H,4,6,12H2

>  <InChIKey>  (2) 
ODSRQJVZWSSZFG-UHFFFAOYSA-N

>  <SMILES>  (2) 
c1cc(cc(c1)C#N)CNCCc2ccnc(n2)n3ccnc3

>  <MissingHeavyAtoms>  (2) 
0

>  <Model>  (2) 
1

>  <AltIds>  (2) 


>  <pKI>  (2) 
6.86

>  <ChemblID>  (2) 
CHEMBL3407815

>  <standardized_canonical_smiles>  (2) 
N#Cc1cccc(CNCCc2ccnc(-n3ccnc3)n2)c1

$$$$
4UH5_EXI_B_800
     RDKit          3D

 22 23  0  0  0  0  0  0  0  0999 V2000
  118.2690  244.1260  322.7560 N   0  0  0  0  0  0  0  0  0  0  0  0
  119.5250  244.2980  322.3190 C   0  0  0  0  0  0  0  0  0  0  0  0
  120.5190  243.5230  322.8150 N   0  0  0  0  0  0  0  0  0  0  0  0
  119.7990  245.2670  321.3610 C   0  0  0  0  0  0  0  0  0  0  0  0
  118.7720  246.0470  320.8530 C   0  0  0  0  0  0  0  0  0  0  0  0
  117.4920  245.8420  321.3110 C   0  0  0  0  0  0  0  0  0  0  0  0
  117.2580  244.8820  322.2900 C   0  0  0  0  0  0  0  0  0  0  0  0
  119.0400  247.0960  319.7920 C   0  0  0  0  0  0  0  0  0  0  0  0
  115.8530  244.6240  322.7750 C   0  0  0  0  0  0  0  0  0  0  0  0
  115.4420  243.5070  321.8160 C   0  0  0  0  0  0  0  0  0  0  0  0
  112.3980  241.5440  320.8700 N   0  0  0  0  0  0  0  0  0  0  0  0
  113.6170  242.0920  320.8690 C   0  0  0  0  0  0  0  0  0  0  0  0
  114.0390  242.9430  321.8980 C   0  0  0  0  0  0  0  0  0  0  0  0
  113.1780  243.2270  322.9500 C   0  0  0  0  0  0  0  0  0  0  0  0
  111.9100  242.6520  322.9150 C   0  0  0  0  0  0  0  0  0  0  0  0
  111.5440  241.8090  321.8630 C   0  0  0  0  0  0  0  0  0  0  0  0
  110.2240  241.7750  324.4560 C   0  0  0  0  0  0  0  0  0  0  0  0
  110.9970  242.8950  323.9430 N   0  0  0  0  0  0  0  0  0  0  0  0
  110.8060  244.2560  324.4320 C   0  0  0  0  0  0  0  0  0  0  0  0
  110.6330  244.1380  325.9420 C   0  0  0  0  0  0  0  0  0  0  0  0
  111.8480  243.7060  326.6110 N   0  0  0  0  0  0  0  0  0  0  0  0
  111.9340  243.7830  328.0600 C   0  0  0  0  0  0  0  0  0  0  0  0
  2  1  2  0
  7  1  1  0
  3  2  1  0
  4  2  1  0
  5  4  2  0
  6  5  1  0
  8  5  1  0
  7  6  2  0
  9  7  1  0
 10  9  1  0
 13 10  1  0
 12 11  2  0
 16 11  1  0
 13 12  1  0
 14 13  2  0
 15 14  1  0
 16 15  2  0
 18 15  1  0
 18 17  1  0
 19 18  1  0
 20 19  1  0
 21 20  1  0
 22 21  1  0
A    1
N01
A    2
C02
A    3
N02
A    4
C03
A    5
C04
A    6
C05
A    7
C06
A    8
C07
A    9
C08
A   10
C09
A   11
N11
A   12
C12
A   13
C13
A   14
C14
A   15
C15
A   16
C16
A   17
C17
A   18
N17
A   19
C18
A   20
C19
A   21
N20
A   22
C21
M  END
>  <Id>  (3) 
4UH5_EXI_B_800

>  <ChainId>  (3) 
B

>  <AsymId>  (3) 
K

>  <SeqNum>  (3) 
800

>  <Name>  (3) 
N1-(5-(2-(6-Amino-4-methylpyridin-2-yl)ethyl)pyridin-3-yl)-N1,N2-dimethylethane-1,2-diamine

>  <SystematicName>  (3) 
N'-[5-[2-(6-azanyl-4-methyl-pyridin-2-yl)ethyl]pyridin-3-yl]-N,N'-dimethyl-ethane-1,2-diamine

>  <Synonyms>  (3) 


>  <Type>  (3) 
NON-POLYMER

>  <Formula>  (3) 
C17 H25 N5

>  <ObservedFormula>  (3) 
C17 N5

>  <MolecularWeight>  (3) 
299.414

>  <ModifiedDate>  (3) 
2015-06-19

>  <Parent>  (3) 


>  <OneLetterCode>  (3) 


>  <SubcomponentList>  (3) 


>  <AmbiguousFlag>  (3) 
N

>  <InsertionCode>  (3) 


>  <InstanceId>  (3) 
4UH5_EXI_B_800

>  <ChemCompId>  (3) 
EXI

>  <PdbId>  (3) 
4UH5

>  <ResidueNumber>  (3) 
800

>  <InChI>  (3) 
InChI=1S/C17H25N5/c1-13-8-15(21-17(18)9-13)5-4-14-10-16(12-20-11-14)22(3)7-6-19-2/h8-12,19H,4-7H2,1-3H3,(H2,18,21)

>  <InChIKey>  (3) 
BAILAIZRWKFZJT-UHFFFAOYSA-N

>  <SMILES>  (3) 
Cc1cc(nc(c1)N)CCc2cc(cnc2)N(C)CCNC

>  <MissingHeavyAtoms>  (3) 
0

>  <Model>  (3) 
1

>  <AltIds>  (3) 


>  <pKI>  (3) 
7.23

>  <ChemblID>  (3) 
CHEMBL3586661

>  <standardized_canonical_smiles>  (3) 
CNCCN(C)c1cncc(CCc2cc(C)cc(N)n2)c1

$$$$
4UH6_Q1T_B_800
     RDKit          3D

 24 25  0  0  0  0  0  0  0  0999 V2000
  118.1290  244.7130  324.6810 N   0  0  0  0  0  0  0  0  0  0  0  0
  119.3290  244.6210  324.0830 C   0  0  0  0  0  0  0  0  0  0  0  0
  120.2210  243.7220  324.5730 N   0  0  0  0  0  0  0  0  0  0  0  0
  119.6200  245.4410  322.9880 C   0  0  0  0  0  0  0  0  0  0  0  0
  118.6510  246.3410  322.5440 C   0  0  0  0  0  0  0  0  0  0  0  0
  117.4330  246.4150  323.1920 C   0  0  0  0  0  0  0  0  0  0  0  0
  117.1960  245.5880  324.2800 C   0  0  0  0  0  0  0  0  0  0  0  0
  118.8930  247.2580  321.3760 C   0  0  0  0  0  0  0  0  0  0  0  0
  115.8610  245.6060  324.9730 C   0  0  0  0  0  0  0  0  0  0  0  0
  115.0990  244.4980  324.2380 C   0  0  0  0  0  0  0  0  0  0  0  0
  113.7840  244.1960  324.9060 C   0  0  0  0  0  0  0  0  0  0  0  0
  112.6120  244.4620  324.2130 C   0  0  0  0  0  0  0  0  0  0  0  0
  111.3860  244.1930  324.8020 C   0  0  0  0  0  0  0  0  0  0  0  0
  111.3260  243.6490  326.0880 C   0  0  0  0  0  0  0  0  0  0  0  0
  112.5070  243.3710  326.7900 C   0  0  0  0  0  0  0  0  0  0  0  0
  113.7400  243.6450  326.1920 C   0  0  0  0  0  0  0  0  0  0  0  0
  110.3110  244.4670  324.1380 C   0  0  0  0  0  0  0  0  0  0  0  0
  109.3230  244.7170  323.5690 N   0  0  0  0  0  0  0  0  0  0  0  0
  113.6390  242.2020  328.6960 C   0  0  0  0  0  0  0  0  0  0  0  0
  112.4550  242.8180  328.0890 N   0  0  0  0  0  0  0  0  0  0  0  0
  111.1860  242.8470  328.8250 C   0  0  0  0  0  0  0  0  0  0  0  0
  111.4030  243.6640  330.0970 C   0  0  0  0  0  0  0  0  0  0  0  0
  111.6270  245.0710  329.7970 N   0  0  0  0  0  0  0  0  0  0  0  0
  110.5870  245.8900  329.1930 C   0  0  0  0  0  0  0  0  0  0  0  0
  2  1  2  0
  7  1  1  0
  3  2  1  0
  4  2  1  0
  5  4  2  0
  6  5  1  0
  8  5  1  0
  7  6  2  0
  9  7  1  0
 10  9  1  0
 11 10  1  0
 12 11  2  0
 16 11  1  0
 13 12  1  0
 14 13  2  0
 17 13  1  0
 15 14  1  0
 16 15  2  0
 20 15  1  0
 18 17  3  0
 20 19  1  0
 21 20  1  0
 22 21  1  0
 23 22  1  0
 24 23  1  0
A    1
N01
A    2
C02
A    3
N02
A    4
C03
A    5
C04
A    6
C05
A    7
C06
A    8
C07
A    9
C08
A   10
C09
A   11
C11
A   12
C12
A   13
C13
A   14
C14
A   15
C15
A   16
C16
A   17
C17
A   18
N18
A   19
C19
A   20
N19
A   21
C20
A   22
C21
A   23
N22
A   24
C23
M  END
>  <Id>  (4) 
4UH6_Q1T_B_800

>  <ChainId>  (4) 
B

>  <AsymId>  (4) 
K

>  <SeqNum>  (4) 
800

>  <Name>  (4) 
3-(2-(6-AMINO-4-METHYLPYRIDIN-2-YL)ETHYL)-5-(METHYL(2-(METHYLAMINO)ETHYL)AMINO)BENZONITRILE

>  <SystematicName>  (4) 
3-[2-(6-azanyl-4-methyl-pyridin-2-yl)ethyl]-5-[methyl-[2-(methylamino)ethyl]amino]benzenecarbonitrile

>  <Synonyms>  (4) 


>  <Type>  (4) 
non-polymer

>  <Formula>  (4) 
C19 H25 N5

>  <ObservedFormula>  (4) 
C19 N5

>  <MolecularWeight>  (4) 
323.435

>  <ModifiedDate>  (4) 
2015-06-19

>  <Parent>  (4) 


>  <OneLetterCode>  (4) 


>  <SubcomponentList>  (4) 


>  <AmbiguousFlag>  (4) 
N

>  <InsertionCode>  (4) 


>  <InstanceId>  (4) 
4UH6_Q1T_B_800

>  <ChemCompId>  (4) 
Q1T

>  <PdbId>  (4) 
4UH6

>  <ResidueNumber>  (4) 
800

>  <InChI>  (4) 
InChI=1S/C19H25N5/c1-14-8-17(23-19(21)9-14)5-4-15-10-16(13-20)12-18(11-15)24(3)7-6-22-2/h8-12,22H,4-7H2,1-3H3,(H2,21,23)

>  <InChIKey>  (4) 
RYFZEWNGJTVNMY-UHFFFAOYSA-N

>  <SMILES>  (4) 
Cc1cc(nc(c1)N)CCc2cc(cc(c2)N(C)CCNC)C#N

>  <MissingHeavyAtoms>  (4) 
0

>  <Model>  (4) 
1

>  <AltIds>  (4) 


>  <pKI>  (4) 
7.26

>  <ChemblID>  (4) 
CHEMBL3586664

>  <standardized_canonical_smiles>  (4) 
CNCCN(C)c1cc(C#N)cc(CCc2cc(C)cc(N)n2)c1

$$$$
5ADF_2SN_B_800
     RDKit          3D

 23 25  0  0  0  0  0  0  0  0999 V2000
  108.3530  246.9580  324.5240 C   0  0  0  0  0  0  0  0  0  0  0  0
  109.2640  247.4790  323.4880 N   0  0  0  0  0  0  0  0  0  0  0  0
  110.0800  248.5780  324.0490 C   0  0  0  0  0  0  0  0  0  0  0  0
  110.0580  246.3870  322.8620 C   0  0  0  0  0  0  0  0  0  0  0  0
  111.8540  245.9060  324.5450 C   0  0  0  0  0  0  0  0  0  0  0  0
  110.7220  245.4680  323.8690 C   0  0  0  0  0  0  0  0  0  0  0  0
  110.2230  244.1870  324.1120 C   0  0  0  0  0  0  0  0  0  0  0  0
  110.8470  243.3660  325.0480 C   0  0  0  0  0  0  0  0  0  0  0  0
  111.9780  243.8200  325.7250 C   0  0  0  0  0  0  0  0  0  0  0  0
  112.4790  245.0960  325.4750 C   0  0  0  0  0  0  0  0  0  0  0  0
  113.5710  245.5660  326.1100 N   0  0  0  0  0  0  0  0  0  0  0  0
  114.1460  246.8170  325.6580 C   0  0  0  0  0  0  0  0  0  0  0  0
  117.3130  245.1510  324.3460 C   0  0  0  0  0  0  0  0  0  0  0  0
  116.1240  245.3710  325.0430 C   0  0  0  0  0  0  0  0  0  0  0  0
  115.4300  246.5690  324.8930 C   0  0  0  0  0  0  0  0  0  0  0  0
  115.9280  247.5490  324.0370 C   0  0  0  0  0  0  0  0  0  0  0  0
  117.1050  247.3200  323.3300 C   0  0  0  0  0  0  0  0  0  0  0  0
  117.7970  246.1270  323.4830 C   0  0  0  0  0  0  0  0  0  0  0  0
  118.9720  245.9100  322.7740 C   0  0  0  0  0  0  0  0  0  0  0  0
  119.6480  244.7040  322.9510 C   0  0  0  0  0  0  0  0  0  0  0  0
  119.1410  243.7440  323.8250 C   0  0  0  0  0  0  0  0  0  0  0  0
  119.8170  242.5700  324.0000 N   0  0  0  0  0  0  0  0  0  0  0  0
  117.9850  243.9860  324.4990 N   0  0  0  0  0  0  0  0  0  0  0  0
  2  1  1  0
  3  2  1  0
  4  2  1  0
  6  4  1  0
  6  5  2  0
 10  5  1  0
  7  6  1  0
  8  7  2  0
  9  8  1  0
 10  9  2  0
 11 10  1  0
 12 11  1  0
 15 12  1  0
 14 13  2  0
 18 13  1  0
 23 13  1  0
 15 14  1  0
 16 15  2  0
 17 16  1  0
 18 17  2  0
 19 18  1  0
 20 19  2  0
 21 20  1  0
 22 21  1  0
 23 21  2  0
A    1
C26
A    2
N24
A    3
C25
A    4
C23
A    5
C16
A    6
C15
A    7
C14
A    8
C13
A    9
C12
A   10
C11
A   11
N22
A   12
C21
A   13
C10
A   14
C09
A   15
C08
A   16
C07
A   17
C06
A   18
C05
A   19
C04
A   20
C03
A   21
C02
A   22
N02
A   23
N01
M  END
>  <Id>  (5) 
5ADF_2SN_B_800

>  <ChainId>  (5) 
B

>  <AsymId>  (5) 
I

>  <SeqNum>  (5) 
800

>  <Name>  (5) 
7-[[[3-[(dimethylamino)methyl]phenyl]amino]methyl]quinolin-2-amine

>  <SystematicName>  (5) 
7-[[[3-[(dimethylamino)methyl]phenyl]amino]methyl]quinolin-2-amine

>  <Synonyms>  (5) 


>  <Type>  (5) 
non-polymer

>  <Formula>  (5) 
C19 H22 N4

>  <ObservedFormula>  (5) 
C19 N4

>  <MolecularWeight>  (5) 
306.405

>  <ModifiedDate>  (5) 
2015-10-23

>  <Parent>  (5) 


>  <OneLetterCode>  (5) 


>  <SubcomponentList>  (5) 


>  <AmbiguousFlag>  (5) 
N

>  <InsertionCode>  (5) 


>  <InstanceId>  (5) 
5ADF_2SN_B_800

>  <ChemCompId>  (5) 
2SN

>  <PdbId>  (5) 
5ADF

>  <ResidueNumber>  (5) 
800

>  <InChI>  (5) 
InChI=1S/C19H22N4/c1-23(2)13-15-4-3-5-17(10-15)21-12-14-6-7-16-8-9-19(20)22-18(16)11-14/h3-11,21H,12-13H2,1-2H3,(H2,20,22)

>  <InChIKey>  (5) 
KLVQNBMBSWDRJZ-UHFFFAOYSA-N

>  <SMILES>  (5) 
CN(C)Cc1cccc(c1)NCc2ccc3ccc(nc3c2)N

>  <MissingHeavyAtoms>  (5) 
0

>  <Model>  (5) 
1

>  <AltIds>  (5) 


>  <pKI>  (5) 
6.18

>  <ChemblID>  (5) 
CHEMBL3735825

>  <standardized_canonical_smiles>  (5) 
CN(C)Cc1cccc(NCc2ccc3ccc(N)nc3c2)c1

$$$$
5ADG_XEB_B_801
     RDKit          3D

 23 25  0  0  0  0  0  0  0  0999 V2000
  121.3280  281.5130  315.5950 N   0  0  0  0  0  0  0  0  0  0  0  0
  122.6780  281.5030  315.6750 C   0  0  0  0  0  0  0  0  0  0  0  0
  123.2840  281.4890  316.8910 N   0  0  0  0  0  0  0  0  0  0  0  0
  123.4480  281.5080  314.5160 C   0  0  0  0  0  0  0  0  0  0  0  0
  122.8300  281.5230  313.2690 C   0  0  0  0  0  0  0  0  0  0  0  0
  121.4430  281.5350  313.2090 C   0  0  0  0  0  0  0  0  0  0  0  0
  120.7860  281.5520  311.9800 C   0  0  0  0  0  0  0  0  0  0  0  0
  119.3920  281.5620  311.9360 C   0  0  0  0  0  0  0  0  0  0  0  0
  118.6670  281.5610  313.1280 C   0  0  0  0  0  0  0  0  0  0  0  0
  119.3290  281.5320  314.3490 C   0  0  0  0  0  0  0  0  0  0  0  0
  120.7130  281.5310  314.3930 C   0  0  0  0  0  0  0  0  0  0  0  0
  117.1540  281.5770  313.1440 C   0  0  0  0  0  0  0  0  0  0  0  0
  116.6960  281.8420  314.4770 O   0  0  0  0  0  0  0  0  0  0  0  0
  115.3870  281.5880  314.8040 C   0  0  0  0  0  0  0  0  0  0  0  0
  114.9760  281.4600  316.1300 C   0  0  0  0  0  0  0  0  0  0  0  0
  113.6400  281.1960  316.4170 C   0  0  0  0  0  0  0  0  0  0  0  0
  112.7190  281.0630  315.3790 C   0  0  0  0  0  0  0  0  0  0  0  0
  113.1310  281.1880  314.0590 C   0  0  0  0  0  0  0  0  0  0  0  0
  114.4610  281.4550  313.7800 C   0  0  0  0  0  0  0  0  0  0  0  0
  110.9930  280.7230  315.7480 Cl  0  0  0  0  0  0  0  0  0  0  0  0
  112.1520  281.0480  312.9150 C   0  0  0  0  0  0  0  0  0  0  0  0
  112.4600  279.8350  312.1370 N   0  0  0  0  0  0  0  0  0  0  0  0
  111.2570  278.9950  312.0780 C   0  0  0  0  0  0  0  0  0  0  0  0
  2  1  2  0
 11  1  1  0
  3  2  1  0
  4  2  1  0
  5  4  2  0
  6  5  1  0
  7  6  1  0
 11  6  2  0
  8  7  2  0
  9  8  1  0
 10  9  2  0
 12  9  1  0
 11 10  1  0
 13 12  1  0
 14 13  1  0
 15 14  2  0
 19 14  1  0
 16 15  1  0
 17 16  2  0
 18 17  1  0
 20 17  1  0
 19 18  2  0
 21 18  1  0
 22 21  1  0
 23 22  1  0
A    1
N01
A    2
C02
A    3
N02
A    4
C03
A    5
C04
A    6
C05
A    7
C06
A    8
C07
A    9
C08
A   10
C09
A   11
C10
A   12
C11
A   13
O12
A   14
C21
A   15
C22
A   16
C23
A   17
C24
A   18
C25
A   19
C26
A   20
CL
A   21
C28
A   22
N29
A   23
C30
M  END
>  <Id>  (6) 
5ADG_XEB_B_801

>  <ChainId>  (6) 
B

>  <AsymId>  (6) 
K

>  <SeqNum>  (6) 
801

>  <Name>  (6) 
7-[[4-chloranyl-3-(methylaminomethyl)phenoxy]methyl]quinolin-2-amine

>  <SystematicName>  (6) 
7-[[4-chloranyl-3-(methylaminomethyl)phenoxy]methyl]quinolin-2-amine

>  <Synonyms>  (6) 


>  <Type>  (6) 
NON-POLYMER

>  <Formula>  (6) 
C18 H18 Cl N3 O

>  <ObservedFormula>  (6) 
C18 Cl N3 O

>  <MolecularWeight>  (6) 
327.808

>  <ModifiedDate>  (6) 
2015-10-23

>  <Parent>  (6) 


>  <OneLetterCode>  (6) 


>  <SubcomponentList>  (6) 


>  <AmbiguousFlag>  (6) 
N

>  <InsertionCode>  (6) 


>  <InstanceId>  (6) 
5ADG_XEB_B_801

>  <ChemCompId>  (6) 
XEB

>  <PdbId>  (6) 
5ADG

>  <ResidueNumber>  (6) 
801

>  <InChI>  (6) 
InChI=1S/C18H18ClN3O/c1-21-10-14-9-15(5-6-16(14)19)23-11-12-2-3-13-4-7-18(20)22-17(13)8-12/h2-9,21H,10-11H2,1H3,(H2,20,22)

>  <InChIKey>  (6) 
SVDORCPNIHFYFA-UHFFFAOYSA-N

>  <SMILES>  (6) 
CNCc1cc(ccc1Cl)OCc2ccc3ccc(nc3c2)N

>  <MissingHeavyAtoms>  (6) 
0

>  <Model>  (6) 
1

>  <AltIds>  (6) 


>  <pKI>  (6) 
6.53

>  <ChemblID>  (6) 
CHEMBL3735289

>  <standardized_canonical_smiles>  (6) 
CNCc1cc(OCc2ccc3ccc(N)nc3c2)ccc1Cl

$$$$
5FVX_W67_B_800
     RDKit          3D

 22 23  0  0  0  0  0  0  0  0999 V2000
  118.1850  243.2030  322.9130 N   0  0  0  0  0  0  0  0  0  0  0  0
  119.4350  243.4420  322.4710 C   0  0  0  0  0  0  0  0  0  0  0  0
  120.4910  242.7430  322.9520 N   0  0  0  0  0  0  0  0  0  0  0  0
  119.6590  244.4120  321.5120 C   0  0  0  0  0  0  0  0  0  0  0  0
  118.6080  245.1330  320.9790 C   0  0  0  0  0  0  0  0  0  0  0  0
  117.3260  244.8710  321.4400 C   0  0  0  0  0  0  0  0  0  0  0  0
  117.1390  243.8990  322.4250 C   0  0  0  0  0  0  0  0  0  0  0  0
  118.8870  246.1760  319.9070 C   0  0  0  0  0  0  0  0  0  0  0  0
  115.7440  243.5890  322.9060 C   0  0  0  0  0  0  0  0  0  0  0  0
  115.2330  242.7840  321.7160 C   0  0  0  0  0  0  0  0  0  0  0  0
  112.5700  240.2730  321.0330 N   0  0  0  0  0  0  0  0  0  0  0  0
  113.6970  240.9830  320.9730 C   0  0  0  0  0  0  0  0  0  0  0  0
  113.9330  242.0280  321.8610 C   0  0  0  0  0  0  0  0  0  0  0  0
  112.9840  242.3440  322.8230 C   0  0  0  0  0  0  0  0  0  0  0  0
  111.8200  241.5880  322.8620 C   0  0  0  0  0  0  0  0  0  0  0  0
  111.6430  240.5530  321.9540 C   0  0  0  0  0  0  0  0  0  0  0  0
  110.7340  241.8560  323.8780 C   0  0  0  0  0  0  0  0  0  0  0  0
  111.0720  242.9710  324.8650 C   0  0  0  0  0  0  0  0  0  0  0  0
  109.9360  243.0400  325.8850 C   0  0  0  0  0  0  0  0  0  0  0  0
  109.8690  245.4530  325.8040 C   0  0  0  0  0  0  0  0  0  0  0  0
  109.9800  244.2750  326.6790 N   0  0  0  0  0  0  0  0  0  0  0  0
  108.8590  244.2620  327.6310 C   0  0  0  0  0  0  0  0  0  0  0  0
  2  1  2  0
  7  1  1  0
  3  2  1  0
  4  2  1  0
  5  4  2  0
  6  5  1  0
  8  5  1  0
  7  6  2  0
  9  7  1  0
 10  9  1  0
 13 10  1  0
 12 11  2  0
 16 11  1  0
 13 12  1  0
 14 13  2  0
 15 14  1  0
 16 15  2  0
 17 15  1  0
 18 17  1  0
 19 18  1  0
 21 19  1  0
 21 20  1  0
 22 21  1  0
A    1
N01
A    2
C02
A    3
N02
A    4
C03
A    5
C04
A    6
C05
A    7
C06
A    8
C07
A    9
C08
A   10
C09
A   11
N11
A   12
C12
A   13
C13
A   14
C14
A   15
C15
A   16
C16
A   17
C17
A   18
C18
A   19
C19
A   20
C22
A   21
N20
A   22
C21
M  END
>  <Id>  (7) 
5FVX_W67_B_800

>  <ChainId>  (7) 
B

>  <AsymId>  (7) 
I

>  <SeqNum>  (7) 
800

>  <Name>  (7) 
6-(2-(5-(3-(DIMETHYLAMINO)PROPYL)PYRIDIN-3-YL)ETHYL)-4-METHYLPYRIDIN-2-AMINE

>  <SystematicName>  (7) 
6-[2-[5-[3-(dimethylamino)propyl]pyridin-3-yl]ethyl]-4-methyl-pyridin-2-amine

>  <Synonyms>  (7) 


>  <Type>  (7) 
non-polymer

>  <Formula>  (7) 
C18 H26 N4

>  <ObservedFormula>  (7) 
C18 N4

>  <MolecularWeight>  (7) 
298.426

>  <ModifiedDate>  (7) 
2016-04-15

>  <Parent>  (7) 


>  <OneLetterCode>  (7) 


>  <SubcomponentList>  (7) 


>  <AmbiguousFlag>  (7) 
N

>  <InsertionCode>  (7) 


>  <InstanceId>  (7) 
5FVX_W67_B_800

>  <ChemCompId>  (7) 
W67

>  <PdbId>  (7) 
5FVX

>  <ResidueNumber>  (7) 
800

>  <InChI>  (7) 
InChI=1S/C18H26N4/c1-14-9-17(21-18(19)10-14)7-6-16-11-15(12-20-13-16)5-4-8-22(2)3/h9-13H,4-8H2,1-3H3,(H2,19,21)

>  <InChIKey>  (7) 
TUAXAWZDVAYXFN-UHFFFAOYSA-N

>  <SMILES>  (7) 
Cc1cc(nc(c1)N)CCc2cc(cnc2)CCCN(C)C

>  <MissingHeavyAtoms>  (7) 
0

>  <Model>  (7) 
1

>  <AltIds>  (7) 


>  <pKI>  (7) 
7.43

>  <ChemblID>  (7) 
CHEMBL3818566

>  <standardized_canonical_smiles>  (7) 
Cc1cc(N)nc(CCc2cncc(CCCN(C)C)c2)c1

$$$$
5FVW_W66_B_800
     RDKit          3D

 21 22  0  0  0  0  0  0  0  0999 V2000
  119.2330  245.9410  320.1370 C   0  0  0  0  0  0  0  0  0  0  0  0
  117.5220  243.3840  322.3610 C   0  0  0  0  0  0  0  0  0  0  0  0
  117.7170  244.4610  321.5090 C   0  0  0  0  0  0  0  0  0  0  0  0
  118.9990  244.7870  321.0880 C   0  0  0  0  0  0  0  0  0  0  0  0
  120.0680  244.0300  321.5310 C   0  0  0  0  0  0  0  0  0  0  0  0
  119.8340  242.9650  322.3860 C   0  0  0  0  0  0  0  0  0  0  0  0
  120.8550  242.2060  322.8290 N   0  0  0  0  0  0  0  0  0  0  0  0
  118.5850  242.6690  322.7770 N   0  0  0  0  0  0  0  0  0  0  0  0
  116.1330  242.9980  322.8300 C   0  0  0  0  0  0  0  0  0  0  0  0
  115.3290  242.6330  321.5820 C   0  0  0  0  0  0  0  0  0  0  0  0
  111.9660  240.0820  322.2210 C   0  0  0  0  0  0  0  0  0  0  0  0
  112.1290  241.1740  323.0710 C   0  0  0  0  0  0  0  0  0  0  0  0
  113.2230  242.0210  322.8840 C   0  0  0  0  0  0  0  0  0  0  0  0
  114.1240  241.7500  321.8540 C   0  0  0  0  0  0  0  0  0  0  0  0
  113.8970  240.6500  321.0310 C   0  0  0  0  0  0  0  0  0  0  0  0
  112.8430  239.8490  321.2300 N   0  0  0  0  0  0  0  0  0  0  0  0
  111.1210  241.4050  324.1790 C   0  0  0  0  0  0  0  0  0  0  0  0
  111.3020  242.7460  324.8850 C   0  0  0  0  0  0  0  0  0  0  0  0
  110.4080  244.1620  326.7280 N   0  0  0  0  0  0  0  0  0  0  0  0
  110.2130  242.9270  325.9430 C   0  0  0  0  0  0  0  0  0  0  0  0
  110.1590  245.3770  325.9320 C   0  0  0  0  0  0  0  0  0  0  0  0
  4  1  1  0
  3  2  2  0
  8  2  1  0
  9  2  1  0
  4  3  1  0
  5  4  2  0
  6  5  1  0
  7  6  1  0
  8  6  2  0
 10  9  1  0
 14 10  1  0
 12 11  2  0
 16 11  1  0
 13 12  1  0
 17 12  1  0
 14 13  2  0
 15 14  1  0
 16 15  2  0
 18 17  1  0
 20 18  1  0
 20 19  1  0
 21 19  1  0
A    1
C07
A    2
C06
A    3
C05
A    4
C04
A    5
C03
A    6
C02
A    7
N02
A    8
N01
A    9
C08
A   10
C09
A   11
C16
A   12
C15
A   13
C14
A   14
C13
A   15
C12
A   16
N11
A   17
C17
A   18
C18
A   19
N20
A   20
C19
A   21
C21
M  END
>  <Id>  (8) 
5FVW_W66_B_800

>  <ChainId>  (8) 
B

>  <AsymId>  (8) 
I

>  <SeqNum>  (8) 
800

>  <Name>  (8) 
4-METHYL-6-(2-(5-(3-(METHYLAMINO)PROPYL)PYRIDIN-3-YL)ETHYL)PYRIDIN-2-AMINE

>  <SystematicName>  (8) 
4-methyl-6-[2-[5-[3-(methylamino)propyl]pyridin-3-yl]ethyl]pyridin-2-amine

>  <Synonyms>  (8) 


>  <Type>  (8) 
non-polymer

>  <Formula>  (8) 
C17 H24 N4

>  <ObservedFormula>  (8) 
C17 N4

>  <MolecularWeight>  (8) 
284.399

>  <ModifiedDate>  (8) 
2016-04-15

>  <Parent>  (8) 


>  <OneLetterCode>  (8) 


>  <SubcomponentList>  (8) 


>  <AmbiguousFlag>  (8) 
N

>  <InsertionCode>  (8) 


>  <InstanceId>  (8) 
5FVW_W66_B_800

>  <ChemCompId>  (8) 
W66

>  <PdbId>  (8) 
5FVW

>  <ResidueNumber>  (8) 
800

>  <InChI>  (8) 
InChI=1S/C17H24N4/c1-13-8-16(21-17(18)9-13)6-5-15-10-14(11-20-12-15)4-3-7-19-2/h8-12,19H,3-7H2,1-2H3,(H2,18,21)

>  <InChIKey>  (8) 
YUXWMCKGSHXUGW-UHFFFAOYSA-N

>  <SMILES>  (8) 
Cc1cc(nc(c1)N)CCc2cc(cnc2)CCCNC

>  <MissingHeavyAtoms>  (8) 
0

>  <Model>  (8) 
1

>  <AltIds>  (8) 


>  <pKI>  (8) 
7.89

>  <ChemblID>  (8) 
CHEMBL3818373

>  <standardized_canonical_smiles>  (8) 
CNCCCc1cncc(CCc2cc(C)cc(N)n2)c1

$$$$
5FVV_H65_B_800
     RDKit          3D

 23 25  0  0  0  0  0  0  0  0999 V2000
  118.4240  242.5620  323.2450 N   0  0  0  0  0  0  0  0  0  0  0  0
  119.6810  242.7490  322.7890 C   0  0  0  0  0  0  0  0  0  0  0  0
  120.6850  241.9700  323.2460 N   0  0  0  0  0  0  0  0  0  0  0  0
  119.9490  243.7260  321.8390 C   0  0  0  0  0  0  0  0  0  0  0  0
  118.9190  244.5170  321.3630 C   0  0  0  0  0  0  0  0  0  0  0  0
  117.6410  244.3110  321.8520 C   0  0  0  0  0  0  0  0  0  0  0  0
  117.4070  243.3280  322.8150 C   0  0  0  0  0  0  0  0  0  0  0  0
  119.1890  245.5870  320.3370 C   0  0  0  0  0  0  0  0  0  0  0  0
  115.9970  243.0720  323.3170 C   0  0  0  0  0  0  0  0  0  0  0  0
  115.4300  242.2370  322.1600 C   0  0  0  0  0  0  0  0  0  0  0  0
  112.5880  239.9530  321.3960 N   0  0  0  0  0  0  0  0  0  0  0  0
  113.7530  240.5980  321.3540 C   0  0  0  0  0  0  0  0  0  0  0  0
  114.0810  241.5620  322.3050 C   0  0  0  0  0  0  0  0  0  0  0  0
  113.1760  241.8630  323.3170 C   0  0  0  0  0  0  0  0  0  0  0  0
  111.9630  241.1800  323.3400 C   0  0  0  0  0  0  0  0  0  0  0  0
  111.7010  240.2240  322.3610 C   0  0  0  0  0  0  0  0  0  0  0  0
  110.9870  242.8810  324.8820 C   0  0  0  0  0  0  0  0  0  0  0  0
  110.9440  241.4370  324.3940 C   0  0  0  0  0  0  0  0  0  0  0  0
  111.2080  240.5390  325.5990 C   0  0  0  0  0  0  0  0  0  0  0  0
  109.9170  243.0790  325.9570 C   0  0  0  0  0  0  0  0  0  0  0  0
  110.1690  240.7910  326.6970 C   0  0  0  0  0  0  0  0  0  0  0  0
  110.1660  242.2060  327.1170 N   0  0  0  0  0  0  0  0  0  0  0  0
  109.1250  242.4310  328.1430 C   0  0  0  0  0  0  0  0  0  0  0  0
  2  1  2  0
  7  1  1  0
  3  2  1  0
  4  2  1  0
  5  4  2  0
  6  5  1  0
  8  5  1  0
  7  6  2  0
  9  7  1  0
 10  9  1  0
 13 10  1  0
 12 11  2  0
 16 11  1  0
 13 12  1  0
 14 13  2  0
 15 14  1  0
 16 15  2  0
 18 15  1  0
 18 17  1  0
 20 17  1  0
 19 18  1  0
 21 19  1  0
 22 20  1  0
 22 21  1  0
 23 22  1  0
A    1
N01
A    2
C02
A    3
N02
A    4
C03
A    5
C04
A    6
C05
A    7
C06
A    8
C07
A    9
C08
A   10
C09
A   11
N11
A   12
C12
A   13
C13
A   14
C14
A   15
C15
A   16
C16
A   17
C23
A   18
C24
A   19
C25
A   20
C22
A   21
C26
A   22
N21
A   23
C27
M  END
>  <Id>  (9) 
5FVV_H65_B_800

>  <ChainId>  (9) 
B

>  <AsymId>  (9) 
I

>  <SeqNum>  (9) 
800

>  <Name>  (9) 
4-methyl-6-(2-(5-(1-methylpiperidin-4-yl)pyridin-3-yl)ethyl)pyridin-2-amine

>  <SystematicName>  (9) 
4-methyl-6-[2-[5-(1-methylpiperidin-4-yl)pyridin-3-yl]ethyl]pyridin-2-amine

>  <Synonyms>  (9) 


>  <Type>  (9) 
non-polymer

>  <Formula>  (9) 
C19 H26 N4

>  <ObservedFormula>  (9) 
C19 N4

>  <MolecularWeight>  (9) 
310.437

>  <ModifiedDate>  (9) 
2016-04-15

>  <Parent>  (9) 


>  <OneLetterCode>  (9) 


>  <SubcomponentList>  (9) 


>  <AmbiguousFlag>  (9) 
N

>  <InsertionCode>  (9) 


>  <InstanceId>  (9) 
5FVV_H65_B_800

>  <ChemCompId>  (9) 
H65

>  <PdbId>  (9) 
5FVV

>  <ResidueNumber>  (9) 
800

>  <InChI>  (9) 
InChI=1S/C19H26N4/c1-14-9-18(22-19(20)10-14)4-3-15-11-17(13-21-12-15)16-5-7-23(2)8-6-16/h9-13,16H,3-8H2,1-2H3,(H2,20,22)

>  <InChIKey>  (9) 
UTFTUBTWHNJKBO-UHFFFAOYSA-N

>  <SMILES>  (9) 
Cc1cc(nc(c1)N)CCc2cc(cnc2)C3CCN(CC3)C

>  <MissingHeavyAtoms>  (9) 
0

>  <Model>  (9) 
1

>  <AltIds>  (9) 


>  <pKI>  (9) 
7.05

>  <ChemblID>  (9) 
CHEMBL3819551

>  <standardized_canonical_smiles>  (9) 
Cc1cc(N)nc(CCc2cncc(C3CCN(C)CC3)c2)c1

$$$$
5FVU_W64_B_800
     RDKit          3D

 23 25  0  0  0  0  0  0  0  0999 V2000
  117.9550  242.1110  321.6590 N   0  0  0  0  0  0  0  0  0  0  0  0
  119.2480  242.3500  321.3240 C   0  0  0  0  0  0  0  0  0  0  0  0
  120.2350  241.6040  321.8540 N   0  0  0  0  0  0  0  0  0  0  0  0
  119.5870  243.3570  320.4390 C   0  0  0  0  0  0  0  0  0  0  0  0
  118.5840  244.1260  319.8810 C   0  0  0  0  0  0  0  0  0  0  0  0
  117.2710  243.8760  320.2320 C   0  0  0  0  0  0  0  0  0  0  0  0
  116.9610  242.8580  321.1260 C   0  0  0  0  0  0  0  0  0  0  0  0
  118.9200  245.2290  318.9080 C   0  0  0  0  0  0  0  0  0  0  0  0
  115.5070  242.5860  321.4690 C   0  0  0  0  0  0  0  0  0  0  0  0
  114.9300  241.8330  320.2680 C   0  0  0  0  0  0  0  0  0  0  0  0
  112.0930  239.4030  319.8930 N   0  0  0  0  0  0  0  0  0  0  0  0
  113.2470  240.0520  319.6960 C   0  0  0  0  0  0  0  0  0  0  0  0
  113.6140  241.1160  320.5210 C   0  0  0  0  0  0  0  0  0  0  0  0
  112.7650  241.5020  321.5500 C   0  0  0  0  0  0  0  0  0  0  0  0
  111.5710  240.8150  321.7340 C   0  0  0  0  0  0  0  0  0  0  0  0
  111.2530  239.7590  320.8820 C   0  0  0  0  0  0  0  0  0  0  0  0
  110.7490  240.2620  323.8950 C   0  0  0  0  0  0  0  0  0  0  0  0
  110.6920  241.1820  322.7660 N   0  0  0  0  0  0  0  0  0  0  0  0
  110.9870  242.5260  323.2380 C   0  0  0  0  0  0  0  0  0  0  0  0
  109.5510  240.6320  324.7780 C   0  0  0  0  0  0  0  0  0  0  0  0
  109.7320  242.9170  324.0090 C   0  0  0  0  0  0  0  0  0  0  0  0
  109.5840  242.0500  325.1830 N   0  0  0  0  0  0  0  0  0  0  0  0
  108.3250  242.4100  325.8500 C   0  0  0  0  0  0  0  0  0  0  0  0
  2  1  2  0
  7  1  1  0
  3  2  1  0
  4  2  1  0
  5  4  2  0
  6  5  1  0
  8  5  1  0
  7  6  2  0
  9  7  1  0
 10  9  1  0
 13 10  1  0
 12 11  2  0
 16 11  1  0
 13 12  1  0
 14 13  2  0
 15 14  1  0
 16 15  2  0
 18 15  1  0
 18 17  1  0
 20 17  1  0
 19 18  1  0
 21 19  1  0
 22 20  1  0
 22 21  1  0
 23 22  1  0
A    1
N01
A    2
C02
A    3
N02
A    4
C03
A    5
C04
A    6
C05
A    7
C06
A    8
C07
A    9
C08
A   10
C09
A   11
N11
A   12
C12
A   13
C13
A   14
C14
A   15
C15
A   16
C16
A   17
C22
A   18
N21
A   19
C26
A   20
C23
A   21
C25
A   22
N24
A   23
C27
M  END
>  <Id>  (10) 
5FVU_W64_B_800

>  <ChainId>  (10) 
B

>  <AsymId>  (10) 
J

>  <SeqNum>  (10) 
800

>  <Name>  (10) 
4-methyl-6-(2-(5-(4-methylpiperazin-1-yl)pyridin-3-yl)ethyl)pyridin-2-amine

>  <SystematicName>  (10) 
4-methyl-6-[2-[5-(4-methylpiperazin-1-yl)pyridin-3-yl]ethyl]pyridin-2-amine

>  <Synonyms>  (10) 


>  <Type>  (10) 
non-polymer

>  <Formula>  (10) 
C18 H25 N5

>  <ObservedFormula>  (10) 
C18 N5

>  <MolecularWeight>  (10) 
311.425

>  <ModifiedDate>  (10) 
2016-04-15

>  <Parent>  (10) 


>  <OneLetterCode>  (10) 


>  <SubcomponentList>  (10) 


>  <AmbiguousFlag>  (10) 
N

>  <InsertionCode>  (10) 


>  <InstanceId>  (10) 
5FVU_W64_B_800

>  <ChemCompId>  (10) 
W64

>  <PdbId>  (10) 
5FVU

>  <ResidueNumber>  (10) 
800

>  <InChI>  (10) 
InChI=1S/C18H25N5/c1-14-9-16(21-18(19)10-14)4-3-15-11-17(13-20-12-15)23-7-5-22(2)6-8-23/h9-13H,3-8H2,1-2H3,(H2,19,21)

>  <InChIKey>  (10) 
QJETXLUKROHQMG-UHFFFAOYSA-N

>  <SMILES>  (10) 
Cc1cc(nc(c1)N)CCc2cc(cnc2)N3CCN(CC3)C

>  <MissingHeavyAtoms>  (10) 
0

>  <Model>  (10) 
1

>  <AltIds>  (10) 


>  <pKI>  (10) 
7.08

>  <ChemblID>  (10) 
CHEMBL3818545

>  <standardized_canonical_smiles>  (10) 
Cc1cc(N)nc(CCc2cncc(N3CCN(C)CC3)c2)c1

$$$$
5VV5_9OJ_B_803
     RDKit          3D

 25 27  0  0  0  0  0  0  0  0999 V2000
  105.7460  247.9880  332.8800 N   0  0  0  0  0  0  0  0  0  0  0  0
  106.7240  248.2130  332.2980 C   0  0  0  0  0  0  0  0  0  0  0  0
  107.8090  248.3930  331.6350 C   0  0  0  0  0  0  0  0  0  0  0  0
  107.9290  249.4950  330.8150 C   0  0  0  0  0  0  0  0  0  0  0  0
  106.8050  250.4970  330.7170 C   0  0  0  0  0  0  0  0  0  0  0  0
  108.8360  247.4530  331.7360 C   0  0  0  0  0  0  0  0  0  0  0  0
  110.0030  247.6330  331.0050 C   0  0  0  0  0  0  0  0  0  0  0  0
  110.1300  248.7510  330.1790 C   0  0  0  0  0  0  0  0  0  0  0  0
  109.0950  249.6810  330.0830 C   0  0  0  0  0  0  0  0  0  0  0  0
  111.3990  248.9540  329.3730 C   0  0  0  0  0  0  0  0  0  0  0  0
  112.2130  247.6620  329.3220 C   0  0  0  0  0  0  0  0  0  0  0  0
  113.4320  247.8940  328.5300 N   0  0  0  0  0  0  0  0  0  0  0  0
  114.1310  246.6080  328.4080 C   0  0  0  0  0  0  0  0  0  0  0  0
  115.3990  246.7590  327.6040 C   0  0  0  0  0  0  0  0  0  0  0  0
  116.4150  245.8190  327.7080 C   0  0  0  0  0  0  0  0  0  0  0  0
  117.5780  245.9750  326.9630 C   0  0  0  0  0  0  0  0  0  0  0  0
  117.7300  247.0550  326.1060 C   0  0  0  0  0  0  0  0  0  0  0  0
  116.7140  247.9940  325.9930 C   0  0  0  0  0  0  0  0  0  0  0  0
  115.5600  247.8420  326.7540 C   0  0  0  0  0  0  0  0  0  0  0  0
  118.5580  245.0640  327.0730 N   0  0  0  0  0  0  0  0  0  0  0  0
  119.7000  245.1650  326.3770 C   0  0  0  0  0  0  0  0  0  0  0  0
  120.6470  244.2080  326.5370 N   0  0  0  0  0  0  0  0  0  0  0  0
  119.8880  246.2290  325.4990 C   0  0  0  0  0  0  0  0  0  0  0  0
  118.8910  247.1820  325.3620 C   0  0  0  0  0  0  0  0  0  0  0  0
  119.0570  248.3440  324.4180 C   0  0  0  0  0  0  0  0  0  0  0  0
  2  1  3  0
  3  2  1  0
  4  3  2  0
  6  3  1  0
  5  4  1  0
  9  4  1  0
  7  6  2  0
  8  7  1  0
  9  8  2  0
 10  8  1  0
 11 10  1  0
 12 11  1  0
 13 12  1  0
 14 13  1  0
 15 14  2  0
 19 14  1  0
 16 15  1  0
 17 16  2  0
 20 16  1  0
 18 17  1  0
 24 17  1  0
 19 18  2  0
 21 20  2  0
 22 21  1  0
 23 21  1  0
 24 23  2  0
 25 24  1  0
A    1
N25
A    2
C24
A    3
C23
A    4
C02
A    5
C01
A    6
C22
A    7
C21
A    8
C04
A    9
C03
A   10
C05
A   11
C06
A   12
N07
A   13
C08
A   14
C09
A   15
C20
A   16
C19
A   17
C12
A   18
C11
A   19
C10
A   20
N18
A   21
C16
A   22
N17
A   23
C15
A   24
C13
A   25
C14
M  END
>  <Id>  (11) 
5VV5_9OJ_B_803

>  <ChainId>  (11) 
B

>  <AsymId>  (11) 
I

>  <SeqNum>  (11) 
803

>  <Name>  (11) 
4-(2-{[(2-amino-4-methylquinolin-7-yl)methyl]amino}ethyl)-2-methylbenzonitrile

>  <SystematicName>  (11) 
4-[2-[(2-azanyl-4-methyl-quinolin-7-yl)methylamino]ethyl]-2-methyl-benzenecarbonitrile

>  <Synonyms>  (11) 


>  <Type>  (11) 
NON-POLYMER

>  <Formula>  (11) 
C21 H22 N4

>  <ObservedFormula>  (11) 
C21 N4

>  <MolecularWeight>  (11) 
330.426

>  <ModifiedDate>  (11) 
2017-08-11

>  <Parent>  (11) 


>  <OneLetterCode>  (11) 


>  <SubcomponentList>  (11) 


>  <AmbiguousFlag>  (11) 
N

>  <InsertionCode>  (11) 


>  <InstanceId>  (11) 
5VV5_9OJ_B_803

>  <ChemCompId>  (11) 
9OJ

>  <PdbId>  (11) 
5VV5

>  <ResidueNumber>  (11) 
803

>  <InChI>  (11) 
InChI=1S/C21H22N4/c1-14-9-16(3-5-18(14)12-22)7-8-24-13-17-4-6-19-15(2)10-21(23)25-20(19)11-17/h3-6,9-11,24H,7-8,13H2,1-2H3,(H2,23,25)

>  <InChIKey>  (11) 
GMHLRRHIOCDMQV-UHFFFAOYSA-N

>  <SMILES>  (11) 
Cc1cc(ccc1C#N)CCNCc2ccc3c(cc(nc3c2)N)C

>  <MissingHeavyAtoms>  (11) 
0

>  <Model>  (11) 
1

>  <AltIds>  (11) 


>  <pKI>  (11) 
7.52

>  <ChemblID>  (11) 
-

>  <standardized_canonical_smiles>  (11) 
Cc1cc(CCNCc2ccc3c(C)cc(N)nc3c2)ccc1C#N

$$$$
5VV4_9P7_B_803
     RDKit          3D

 24 26  0  0  0  0  0  0  0  0999 V2000
  116.8510  245.6860  325.2270 C   0  0  0  0  0  0  0  0  0  0  0  0
  113.2790  246.3350  326.2860 C   0  0  0  0  0  0  0  0  0  0  0  0
  111.3480  247.0650  327.4150 C   0  0  0  0  0  0  0  0  0  0  0  0
  110.9870  247.3760  328.8570 C   0  0  0  0  0  0  0  0  0  0  0  0
  104.4610  248.9890  329.2720 N   0  0  0  0  0  0  0  0  0  0  0  0
  105.5730  248.6580  329.2380 C   0  0  0  0  0  0  0  0  0  0  0  0
  106.8200  248.3600  329.1340 C   0  0  0  0  0  0  0  0  0  0  0  0
  107.7340  249.3230  328.7590 C   0  0  0  0  0  0  0  0  0  0  0  0
  107.2510  247.0600  329.4360 C   0  0  0  0  0  0  0  0  0  0  0  0
  106.2630  245.9990  329.8550 C   0  0  0  0  0  0  0  0  0  0  0  0
  108.6050  246.7420  329.3430 C   0  0  0  0  0  0  0  0  0  0  0  0
  109.5190  247.7210  328.9560 C   0  0  0  0  0  0  0  0  0  0  0  0
  109.0840  249.0130  328.6650 C   0  0  0  0  0  0  0  0  0  0  0  0
  112.7670  247.3670  327.1910 N   0  0  0  0  0  0  0  0  0  0  0  0
  114.6610  246.5800  325.7160 C   0  0  0  0  0  0  0  0  0  0  0  0
  115.5680  245.5260  325.7520 C   0  0  0  0  0  0  0  0  0  0  0  0
  115.0470  247.7960  325.1480 C   0  0  0  0  0  0  0  0  0  0  0  0
  116.3340  247.9510  324.6030 C   0  0  0  0  0  0  0  0  0  0  0  0
  117.2370  246.8920  324.6430 C   0  0  0  0  0  0  0  0  0  0  0  0
  118.5130  247.0210  324.1110 C   0  0  0  0  0  0  0  0  0  0  0  0
  119.3550  245.9100  324.1870 C   0  0  0  0  0  0  0  0  0  0  0  0
  118.9410  244.7290  324.8030 C   0  0  0  0  0  0  0  0  0  0  0  0
  119.7640  243.6500  324.9130 N   0  0  0  0  0  0  0  0  0  0  0  0
  117.6970  244.6430  325.2980 N   0  0  0  0  0  0  0  0  0  0  0  0
 16  1  2  0
 19  1  1  0
 24  1  1  0
 14  2  1  0
 15  2  1  0
  4  3  1  0
 14  3  1  0
 12  4  1  0
  6  5  3  0
  7  6  1  0
  8  7  2  0
  9  7  1  0
 13  8  1  0
 10  9  1  0
 11  9  2  0
 12 11  1  0
 13 12  2  0
 16 15  1  0
 17 15  2  0
 18 17  1  0
 19 18  2  0
 20 19  1  0
 21 20  2  0
 22 21  1  0
 23 22  1  0
 24 22  2  0
A    1
C10
A    2
C11
A    3
C13
A    4
C14
A    5
N29
A    6
C28
A    7
C24
A    8
C25
A    9
C23
A   10
C27
A   11
C22
A   12
C21
A   13
C26
A   14
N12
A   15
C08
A   16
C09
A   17
C07
A   18
C06
A   19
C05
A   20
C04
A   21
C03
A   22
C02
A   23
N02
A   24
N01
M  END
>  <Id>  (12) 
5VV4_9P7_B_803

>  <ChainId>  (12) 
B

>  <AsymId>  (12) 
I

>  <SeqNum>  (12) 
803

>  <Name>  (12) 
4-(2-{[(2-aminoquinolin-7-yl)methyl]amino}ethyl)-2-methylbenzonitrile

>  <SystematicName>  (12) 
4-[2-[(2-azanylquinolin-7-yl)methylamino]ethyl]-2-methyl-benzenecarbonitrile

>  <Synonyms>  (12) 


>  <Type>  (12) 
NON-POLYMER

>  <Formula>  (12) 
C20 H20 N4

>  <ObservedFormula>  (12) 
C20 N4

>  <MolecularWeight>  (12) 
316.4

>  <ModifiedDate>  (12) 
2017-08-11

>  <Parent>  (12) 


>  <OneLetterCode>  (12) 


>  <SubcomponentList>  (12) 


>  <AmbiguousFlag>  (12) 
N

>  <InsertionCode>  (12) 


>  <InstanceId>  (12) 
5VV4_9P7_B_803

>  <ChemCompId>  (12) 
9P7

>  <PdbId>  (12) 
5VV4

>  <ResidueNumber>  (12) 
803

>  <InChI>  (12) 
InChI=1S/C20H20N4/c1-14-10-15(2-5-18(14)12-21)8-9-23-13-16-3-4-17-6-7-20(22)24-19(17)11-16/h2-7,10-11,23H,8-9,13H2,1H3,(H2,22,24)

>  <InChIKey>  (12) 
OFELXUWNGBXCPK-UHFFFAOYSA-N

>  <SMILES>  (12) 
Cc1cc(ccc1C#N)CCNCc2ccc3ccc(nc3c2)N

>  <MissingHeavyAtoms>  (12) 
0

>  <Model>  (12) 
1

>  <AltIds>  (12) 


>  <pKI>  (12) 
7.7

>  <ChemblID>  (12) 
-

>  <standardized_canonical_smiles>  (12) 
Cc1cc(CCNCc2ccc3ccc(N)nc3c2)ccc1C#N

$$$$
5VV0_9OM_B_803
     RDKit          3D

 23 25  0  0  0  0  0  0  0  0999 V2000
  120.0880  243.1120  324.4820 N   0  0  0  0  0  0  0  0  0  0  0  0
  119.3010  244.2240  324.3890 C   0  0  0  0  0  0  0  0  0  0  0  0
  118.0750  244.1770  324.9320 N   0  0  0  0  0  0  0  0  0  0  0  0
  117.2490  245.2360  324.8860 C   0  0  0  0  0  0  0  0  0  0  0  0
  119.7250  245.3940  323.7470 C   0  0  0  0  0  0  0  0  0  0  0  0
  118.8880  246.5160  323.6840 C   0  0  0  0  0  0  0  0  0  0  0  0
  117.6260  246.4260  324.2760 C   0  0  0  0  0  0  0  0  0  0  0  0
  116.7420  247.5020  324.2690 C   0  0  0  0  0  0  0  0  0  0  0  0
  115.4750  247.3680  324.8570 C   0  0  0  0  0  0  0  0  0  0  0  0
  115.1050  246.1610  325.4470 C   0  0  0  0  0  0  0  0  0  0  0  0
  115.9940  245.1020  325.4570 C   0  0  0  0  0  0  0  0  0  0  0  0
  113.7580  245.9110  326.0890 C   0  0  0  0  0  0  0  0  0  0  0  0
  113.1780  247.0160  326.8570 N   0  0  0  0  0  0  0  0  0  0  0  0
  111.8160  246.5660  327.1510 C   0  0  0  0  0  0  0  0  0  0  0  0
  111.1780  247.3290  328.2980 C   0  0  0  0  0  0  0  0  0  0  0  0
  110.2270  246.3480  328.9750 C   0  0  0  0  0  0  0  0  0  0  0  0
  108.8120  246.8280  329.2320 C   0  0  0  0  0  0  0  0  0  0  0  0
  108.4160  246.8860  330.5660 C   0  0  0  0  0  0  0  0  0  0  0  0
  107.8980  247.1900  328.2360 C   0  0  0  0  0  0  0  0  0  0  0  0
  108.2040  247.1610  326.7540 C   0  0  0  0  0  0  0  0  0  0  0  0
  106.6280  247.6000  328.6280 C   0  0  0  0  0  0  0  0  0  0  0  0
  106.2940  247.6410  329.9760 C   0  0  0  0  0  0  0  0  0  0  0  0
  107.1850  247.2880  330.9100 N   0  0  0  0  0  0  0  0  0  0  0  0
  2  1  1  0
  3  2  2  0
  5  2  1  0
  4  3  1  0
  7  4  2  0
 11  4  1  0
  6  5  2  0
  7  6  1  0
  8  7  1  0
  9  8  2  0
 10  9  1  0
 11 10  2  0
 12 10  1  0
 13 12  1  0
 14 13  1  0
 15 14  1  0
 16 15  1  0
 17 16  1  0
 18 17  2  0
 19 17  1  0
 23 18  1  0
 20 19  1  0
 21 19  2  0
 22 21  1  0
 23 22  2  0
A    1
N02
A    2
C02
A    3
N01
A    4
C10
A    5
C03
A    6
C04
A    7
C05
A    8
C06
A    9
C07
A   10
C08
A   11
C09
A   12
C11
A   13
N12
A   14
C13
A   15
C14
A   16
C15
A   17
C23
A   18
C22
A   19
C24
A   20
C27
A   21
C25
A   22
C26
A   23
N21
M  END
>  <Id>  (13) 
5VV0_9OM_B_803

>  <ChainId>  (13) 
B

>  <AsymId>  (13) 
I

>  <SeqNum>  (13) 
803

>  <Name>  (13) 
7-({[3-(4-methylpyridin-3-yl)propyl]amino}methyl)quinolin-2-amine

>  <SystematicName>  (13) 
7-[[3-(4-methylpyridin-3-yl)propylamino]methyl]quinolin-2-amine

>  <Synonyms>  (13) 


>  <Type>  (13) 
NON-POLYMER

>  <Formula>  (13) 
C19 H22 N4

>  <ObservedFormula>  (13) 
C19 N4

>  <MolecularWeight>  (13) 
306.405

>  <ModifiedDate>  (13) 
2017-08-11

>  <Parent>  (13) 


>  <OneLetterCode>  (13) 


>  <SubcomponentList>  (13) 


>  <AmbiguousFlag>  (13) 
N

>  <InsertionCode>  (13) 


>  <InstanceId>  (13) 
5VV0_9OM_B_803

>  <ChemCompId>  (13) 
9OM

>  <PdbId>  (13) 
5VV0

>  <ResidueNumber>  (13) 
803

>  <InChI>  (13) 
InChI=1S/C19H22N4/c1-14-8-10-22-13-17(14)3-2-9-21-12-15-4-5-16-6-7-19(20)23-18(16)11-15/h4-8,10-11,13,21H,2-3,9,12H2,1H3,(H2,20,23)

>  <InChIKey>  (13) 
DURWIDBNTFVYBY-UHFFFAOYSA-N

>  <SMILES>  (13) 
Cc1ccncc1CCCNCc2ccc3ccc(nc3c2)N

>  <MissingHeavyAtoms>  (13) 
0

>  <Model>  (13) 
1

>  <AltIds>  (13) 


>  <pKI>  (13) 
6.89

>  <ChemblID>  (13) 
-

>  <standardized_canonical_smiles>  (13) 
Cc1ccncc1CCCNCc1ccc2ccc(N)nc2c1

$$$$
6AV1_W69_B_803
     RDKit          3D

 23 24  0  0  0  0  0  0  0  0999 V2000
  111.1130  238.6240  321.5590 F   0  0  0  0  0  0  0  0  0  0  0  0
  111.7940  239.4620  322.3630 C   0  0  0  0  0  0  0  0  0  0  0  0
  113.1420  239.6830  322.1130 C   0  0  0  0  0  0  0  0  0  0  0  0
  111.1670  240.1100  323.4300 C   0  0  0  0  0  0  0  0  0  0  0  0
  111.9010  240.9730  324.2490 C   0  0  0  0  0  0  0  0  0  0  0  0
  111.2920  241.7060  325.4240 C   0  0  0  0  0  0  0  0  0  0  0  0
  109.8270  242.0600  325.2070 C   0  0  0  0  0  0  0  0  0  0  0  0
  109.4130  243.1230  326.2220 C   0  0  0  0  0  0  0  0  0  0  0  0
  109.5550  242.6130  327.5970 N   0  0  0  0  0  0  0  0  0  0  0  0
  109.8460  243.7320  328.5030 C   0  0  0  0  0  0  0  0  0  0  0  0
  108.3170  241.9280  328.0110 C   0  0  0  0  0  0  0  0  0  0  0  0
  113.2490  241.1890  323.9920 C   0  0  0  0  0  0  0  0  0  0  0  0
  113.8670  240.5430  322.9310 C   0  0  0  0  0  0  0  0  0  0  0  0
  115.3280  240.7800  322.6640 C   0  0  0  0  0  0  0  0  0  0  0  0
  115.8550  242.0040  323.4050 C   0  0  0  0  0  0  0  0  0  0  0  0
  117.2500  242.1810  322.8590 C   0  0  0  0  0  0  0  0  0  0  0  0
  118.2480  241.3790  323.3040 N   0  0  0  0  0  0  0  0  0  0  0  0
  119.4920  241.4990  322.8220 C   0  0  0  0  0  0  0  0  0  0  0  0
  120.4840  240.7070  323.2750 N   0  0  0  0  0  0  0  0  0  0  0  0
  119.7630  242.4480  321.8540 C   0  0  0  0  0  0  0  0  0  0  0  0
  118.7610  243.2660  321.3720 C   0  0  0  0  0  0  0  0  0  0  0  0
  117.4840  243.1310  321.8770 C   0  0  0  0  0  0  0  0  0  0  0  0
  119.0750  244.2890  320.3070 C   0  0  0  0  0  0  0  0  0  0  0  0
  2  1  1  0
  3  2  2  0
  4  2  1  0
 13  3  1  0
  5  4  2  0
  6  5  1  0
 12  5  1  0
  7  6  1  0
  8  7  1  0
  9  8  1  0
 10  9  1  0
 11  9  1  0
 13 12  2  0
 14 13  1  0
 15 14  1  0
 16 15  1  0
 17 16  2  0
 22 16  1  0
 18 17  1  0
 19 18  1  0
 20 18  2  0
 21 20  1  0
 22 21  2  0
 23 21  1  0
A    1
F13
A    2
C13
A    3
C12
A    4
C14
A    5
C15
A    6
C17
A    7
C18
A    8
C19
A    9
N20
A   10
C21
A   11
C22
A   12
C16
A   13
C11
A   14
C09
A   15
C08
A   16
C06
A   17
N01
A   18
C02
A   19
N02
A   20
C03
A   21
C04
A   22
C05
A   23
C07
M  END
>  <Id>  (14) 
6AV1_W69_B_803

>  <ChainId>  (14) 
B

>  <AsymId>  (14) 
I

>  <SeqNum>  (14) 
803

>  <Name>  (14) 
6-(2-{3-[3-(dimethylamino)propyl]-5-fluorophenyl}ethyl)-4-methylpyridin-2-amine

>  <SystematicName>  (14) 
6-[2-[3-[3-(dimethylamino)propyl]-5-fluoranyl-phenyl]ethyl]-4-methyl-pyridin-2-amine

>  <Synonyms>  (14) 


>  <Type>  (14) 
NON-POLYMER

>  <Formula>  (14) 
C19 H26 F N3

>  <ObservedFormula>  (14) 
C19 F N3

>  <MolecularWeight>  (14) 
315.428

>  <ModifiedDate>  (14) 
2018-07-06

>  <Parent>  (14) 


>  <OneLetterCode>  (14) 


>  <SubcomponentList>  (14) 


>  <AmbiguousFlag>  (14) 
N

>  <InsertionCode>  (14) 


>  <InstanceId>  (14) 
6AV1_W69_B_803

>  <ChemCompId>  (14) 
W69

>  <PdbId>  (14) 
6AV1

>  <ResidueNumber>  (14) 
803

>  <InChI>  (14) 
InChI=1S/C19H26FN3/c1-14-9-18(22-19(21)10-14)7-6-16-11-15(12-17(20)13-16)5-4-8-23(2)3/h9-13H,4-8H2,1-3H3,(H2,21,22)

>  <InChIKey>  (14) 
QAFLXFWRGFNYKW-UHFFFAOYSA-N

>  <SMILES>  (14) 
Cc1cc(nc(c1)N)CCc2cc(cc(c2)F)CCCN(C)C

>  <MissingHeavyAtoms>  (14) 
0

>  <Model>  (14) 
1

>  <AltIds>  (14) 


>  <pKI>  (14) 
7.52

>  <ChemblID>  (14) 
-

>  <standardized_canonical_smiles>  (14) 
Cc1cc(N)nc(CCc2cc(F)cc(CCCN(C)C)c2)c1

$$$$
5UO2_8J4_B_803
     RDKit          3D

 24 26  0  0  0  0  0  0  0  0999 V2000
  117.0210  246.0850  325.5440 C   0  0  0  0  0  0  0  0  0  0  0  0
  113.7330  246.9820  327.1140 C   0  0  0  0  0  0  0  0  0  0  0  0
  119.7620  243.8490  325.0760 N   0  0  0  0  0  0  0  0  0  0  0  0
  118.9900  244.9640  324.9310 C   0  0  0  0  0  0  0  0  0  0  0  0
  117.8330  245.0220  325.6160 N   0  0  0  0  0  0  0  0  0  0  0  0
  119.3540  246.0340  324.1050 C   0  0  0  0  0  0  0  0  0  0  0  0
  118.5230  247.1560  324.0210 C   0  0  0  0  0  0  0  0  0  0  0  0
  117.3360  247.1820  324.7500 C   0  0  0  0  0  0  0  0  0  0  0  0
  116.4600  248.2700  324.7170 C   0  0  0  0  0  0  0  0  0  0  0  0
  115.2790  248.2490  325.4770 C   0  0  0  0  0  0  0  0  0  0  0  0
  114.9760  247.1290  326.2570 C   0  0  0  0  0  0  0  0  0  0  0  0
  115.8580  246.0610  326.2850 C   0  0  0  0  0  0  0  0  0  0  0  0
  112.7300  247.9890  326.9910 O   0  0  0  0  0  0  0  0  0  0  0  0
  111.6380  247.8530  327.8200 C   0  0  0  0  0  0  0  0  0  0  0  0
  110.6380  248.8150  327.8220 C   0  0  0  0  0  0  0  0  0  0  0  0
  111.5100  246.7480  328.6690 C   0  0  0  0  0  0  0  0  0  0  0  0
  110.3980  246.6110  329.5080 C   0  0  0  0  0  0  0  0  0  0  0  0
  110.2480  245.4230  330.4330 C   0  0  0  0  0  0  0  0  0  0  0  0
  111.5600  244.8210  330.7260 N   0  0  0  0  0  0  0  0  0  0  0  0
  111.3550  243.4210  331.1520 C   0  0  0  0  0  0  0  0  0  0  0  0
  109.4110  247.5830  329.5040 C   0  0  0  0  0  0  0  0  0  0  0  0
  109.5350  248.6730  328.6530 C   0  0  0  0  0  0  0  0  0  0  0  0
  108.4700  249.7320  328.6530 C   0  0  0  0  0  0  0  0  0  0  0  0
  108.5600  250.3830  330.0090 C   0  0  0  0  0  0  0  0  0  0  0  0
  5  1  1  0
  8  1  2  0
 12  1  1  0
 11  2  1  0
 13  2  1  0
  4  3  1  0
  5  4  2  0
  6  4  1  0
  7  6  2  0
  8  7  1  0
  9  8  1  0
 10  9  2  0
 11 10  1  0
 12 11  2  0
 14 13  1  0
 15 14  2  0
 16 14  1  0
 22 15  1  0
 17 16  2  0
 18 17  1  0
 21 17  1  0
 19 18  1  0
 20 19  1  0
 22 21  2  0
 23 22  1  0
 24 23  1  0
A    1
C10
A    2
C11
A    3
N02
A    4
C02
A    5
N01
A    6
C03
A    7
C04
A    8
C05
A    9
C06
A   10
C07
A   11
C08
A   12
C09
A   13
O12
A   14
C21
A   15
C26
A   16
C22
A   17
C23
A   18
C29
A   19
N30
A   20
C31
A   21
C24
A   22
C25
A   23
C27
A   24
C28
M  END
>  <Id>  (15) 
5UO2_8J4_B_803

>  <ChainId>  (15) 
B

>  <AsymId>  (15) 
J

>  <SeqNum>  (15) 
803

>  <Name>  (15) 
7-({3-ethyl-5-[(methylamino)methyl]phenoxy}methyl)quinolin-2-amine

>  <SystematicName>  (15) 
7-[[3-ethyl-5-(methylaminomethyl)phenoxy]methyl]quinolin-2-amine

>  <Synonyms>  (15) 


>  <Type>  (15) 
NON-POLYMER

>  <Formula>  (15) 
C20 H23 N3 O

>  <ObservedFormula>  (15) 
C20 N3 O

>  <MolecularWeight>  (15) 
321.416

>  <ModifiedDate>  (15) 
2017-04-28

>  <Parent>  (15) 


>  <OneLetterCode>  (15) 


>  <SubcomponentList>  (15) 


>  <AmbiguousFlag>  (15) 
N

>  <InsertionCode>  (15) 


>  <InstanceId>  (15) 
5UO2_8J4_B_803

>  <ChemCompId>  (15) 
8J4

>  <PdbId>  (15) 
5UO2

>  <ResidueNumber>  (15) 
803

>  <InChI>  (15) 
InChI=1S/C20H23N3O/c1-3-14-8-16(12-22-2)10-18(9-14)24-13-15-4-5-17-6-7-20(21)23-19(17)11-15/h4-11,22H,3,12-13H2,1-2H3,(H2,21,23)

>  <InChIKey>  (15) 
OCTNSHZDWVJCQD-UHFFFAOYSA-N

>  <SMILES>  (15) 
CCc1cc(cc(c1)OCc2ccc3ccc(nc3c2)N)CNC

>  <MissingHeavyAtoms>  (15) 
0

>  <Model>  (15) 
1

>  <AltIds>  (15) 


>  <pKI>  (15) 
6.9

>  <ChemblID>  (15) 
-

>  <standardized_canonical_smiles>  (15) 
CCc1cc(CNC)cc(OCc2ccc3ccc(N)nc3c2)c1

$$$$
6AV4_W80_B_803
     RDKit          3D

 25 27  0  0  0  0  0  0  0  0999 V2000
  120.8800  243.0310  323.8480 N   0  0  0  0  0  0  0  0  0  0  0  0
  119.9540  243.8540  323.3040 C   0  0  0  0  0  0  0  0  0  0  0  0
  120.3060  244.7790  322.3250 C   0  0  0  0  0  0  0  0  0  0  0  0
  119.3130  245.5970  321.7920 C   0  0  0  0  0  0  0  0  0  0  0  0
  118.0040  245.4680  322.2450 C   0  0  0  0  0  0  0  0  0  0  0  0
  119.6440  246.6020  320.7130 C   0  0  0  0  0  0  0  0  0  0  0  0
  118.6770  243.7580  323.7240 N   0  0  0  0  0  0  0  0  0  0  0  0
  117.6970  244.5380  323.2340 C   0  0  0  0  0  0  0  0  0  0  0  0
  116.2740  244.3520  323.7290 C   0  0  0  0  0  0  0  0  0  0  0  0
  115.7240  243.3170  322.7430 C   0  0  0  0  0  0  0  0  0  0  0  0
  114.3160  242.7660  322.9160 C   0  0  0  0  0  0  0  0  0  0  0  0
  113.9430  241.7290  322.0590 C   0  0  0  0  0  0  0  0  0  0  0  0
  112.7290  241.1700  322.1200 N   0  0  0  0  0  0  0  0  0  0  0  0
  111.8350  241.5940  323.0200 C   0  0  0  0  0  0  0  0  0  0  0  0
  113.3970  243.2280  323.8610 C   0  0  0  0  0  0  0  0  0  0  0  0
  112.1390  242.6220  323.9100 C   0  0  0  0  0  0  0  0  0  0  0  0
  111.0910  243.0460  324.8850 C   0  0  0  0  0  0  0  0  0  0  0  0
  110.9270  244.3850  325.2340 C   0  0  0  0  0  0  0  0  0  0  0  0
  110.2460  242.0850  325.4350 C   0  0  0  0  0  0  0  0  0  0  0  0
  109.2530  242.4510  326.3430 C   0  0  0  0  0  0  0  0  0  0  0  0
  109.0950  243.7870  326.7030 C   0  0  0  0  0  0  0  0  0  0  0  0
  109.9330  244.7510  326.1410 C   0  0  0  0  0  0  0  0  0  0  0  0
  108.0130  244.1860  327.6880 C   0  0  0  0  0  0  0  0  0  0  0  0
  108.5800  244.4320  329.0290 N   0  0  0  0  0  0  0  0  0  0  0  0
  107.5470  245.0370  329.8890 C   0  0  0  0  0  0  0  0  0  0  0  0
  2  1  1  0
  3  2  2  0
  7  2  1  0
  4  3  1  0
  5  4  2  0
  6  4  1  0
  8  5  1  0
  8  7  2  0
  9  8  1  0
 10  9  1  0
 11 10  1  0
 12 11  2  0
 15 11  1  0
 13 12  1  0
 14 13  2  0
 16 14  1  0
 16 15  2  0
 17 16  1  0
 18 17  2  0
 19 17  1  0
 22 18  1  0
 20 19  2  0
 21 20  1  0
 22 21  2  0
 23 21  1  0
 24 23  1  0
 25 24  1  0
A    1
N02
A    2
C02
A    3
C03
A    4
C04
A    5
C05
A    6
C07
A    7
N01
A    8
C06
A    9
C08
A   10
C09
A   11
C13
A   12
C12
A   13
N11
A   14
C16
A   15
C14
A   16
C15
A   17
C21
A   18
C26
A   19
C22
A   20
C23
A   21
C24
A   22
C25
A   23
C27
A   24
N28
A   25
C29
M  END
>  <Id>  (16) 
6AV4_W80_B_803

>  <ChainId>  (16) 
B

>  <AsymId>  (16) 
K

>  <SeqNum>  (16) 
803

>  <Name>  (16) 
4-methyl-6-[2-(5-{4-[(methylamino)methyl]phenyl}pyridin-3-yl)ethyl]pyridin-2-amine

>  <SystematicName>  (16) 
4-methyl-6-[2-[5-[4-(methylaminomethyl)phenyl]pyridin-3-yl]ethyl]pyridin-2-amine

>  <Synonyms>  (16) 


>  <Type>  (16) 
NON-POLYMER

>  <Formula>  (16) 
C21 H24 N4

>  <ObservedFormula>  (16) 
C21 N4

>  <MolecularWeight>  (16) 
332.442

>  <ModifiedDate>  (16) 
2018-07-06

>  <Parent>  (16) 


>  <OneLetterCode>  (16) 


>  <SubcomponentList>  (16) 


>  <AmbiguousFlag>  (16) 
N

>  <InsertionCode>  (16) 


>  <InstanceId>  (16) 
6AV4_W80_B_803

>  <ChemCompId>  (16) 
W80

>  <PdbId>  (16) 
6AV4

>  <ResidueNumber>  (16) 
803

>  <InChI>  (16) 
InChI=1S/C21H24N4/c1-15-9-20(25-21(22)10-15)8-5-17-11-19(14-24-13-17)18-6-3-16(4-7-18)12-23-2/h3-4,6-7,9-11,13-14,23H,5,8,12H2,1-2H3,(H2,22,25)

>  <InChIKey>  (16) 
DWEUCJPXVJGNQN-UHFFFAOYSA-N

>  <SMILES>  (16) 
Cc1cc(nc(c1)N)CCc2cc(cnc2)c3ccc(cc3)CNC

>  <MissingHeavyAtoms>  (16) 
0

>  <Model>  (16) 
1

>  <AltIds>  (16) 


>  <pKI>  (16) 
7.0

>  <ChemblID>  (16) 
-

>  <standardized_canonical_smiles>  (16) 
CNCc1ccc(-c2cncc(CCc3cc(C)cc(N)n3)c2)cc1

$$$$
6AV5_W82_B_804
     RDKit          3D

 26 28  0  0  0  0  0  0  0  0999 V2000
  119.7290  243.7790  323.0320 C   0  0  0  0  0  0  0  0  0  0  0  0
  119.0430  245.4890  321.5050 C   0  0  0  0  0  0  0  0  0  0  0  0
  117.7530  245.3820  322.0270 C   0  0  0  0  0  0  0  0  0  0  0  0
  117.4850  244.4730  323.0560 C   0  0  0  0  0  0  0  0  0  0  0  0
  119.3450  246.4680  320.3880 C   0  0  0  0  0  0  0  0  0  0  0  0
  116.0870  244.2950  323.6280 C   0  0  0  0  0  0  0  0  0  0  0  0
  114.1160  242.8550  322.6310 C   0  0  0  0  0  0  0  0  0  0  0  0
  113.8670  241.8360  321.7160 C   0  0  0  0  0  0  0  0  0  0  0  0
  120.0450  244.6770  322.0150 C   0  0  0  0  0  0  0  0  0  0  0  0
  115.4210  243.5990  322.4470 C   0  0  0  0  0  0  0  0  0  0  0  0
  112.6960  241.0990  321.7840 C   0  0  0  0  0  0  0  0  0  0  0  0
  111.7630  241.3840  322.7660 C   0  0  0  0  0  0  0  0  0  0  0  0
  111.9960  242.4040  323.6820 C   0  0  0  0  0  0  0  0  0  0  0  0
  113.1740  243.1530  323.6210 C   0  0  0  0  0  0  0  0  0  0  0  0
  110.9500  242.6510  324.7140 C   0  0  0  0  0  0  0  0  0  0  0  0
  110.1480  241.5910  325.1310 C   0  0  0  0  0  0  0  0  0  0  0  0
  109.1550  241.7880  326.0830 C   0  0  0  0  0  0  0  0  0  0  0  0
  108.9620  243.0550  326.6170 C   0  0  0  0  0  0  0  0  0  0  0  0
  109.7560  244.1170  326.1940 C   0  0  0  0  0  0  0  0  0  0  0  0
  110.7510  243.9200  325.2410 C   0  0  0  0  0  0  0  0  0  0  0  0
  109.5430  245.4930  326.7750 C   0  0  0  0  0  0  0  0  0  0  0  0
  110.2040  247.0050  328.4940 C   0  0  0  0  0  0  0  0  0  0  0  0
  112.4700  240.1100  320.9040 F   0  0  0  0  0  0  0  0  0  0  0  0
  118.4760  243.6970  323.5100 N   0  0  0  0  0  0  0  0  0  0  0  0
  120.6650  242.9620  323.5580 N   0  0  0  0  0  0  0  0  0  0  0  0
  110.3690  245.6370  327.9870 N   0  0  0  0  0  0  0  0  0  0  0  0
  9  1  2  0
 24  1  1  0
 25  1  1  0
  3  2  2  0
  5  2  1  0
  9  2  1  0
  4  3  1  0
  6  4  1  0
 24  4  2  0
 10  6  1  0
  8  7  2  0
 10  7  1  0
 14  7  1  0
 11  8  1  0
 12 11  2  0
 23 11  1  0
 13 12  1  0
 14 13  2  0
 15 13  1  0
 16 15  2  0
 20 15  1  0
 17 16  1  0
 18 17  2  0
 19 18  1  0
 20 19  2  0
 21 19  1  0
 26 21  1  0
 26 22  1  0
A    1
C02
A    2
C04
A    3
C05
A    4
C06
A    5
C07
A    6
C08
A    7
C11
A    8
C12
A    9
C03
A   10
C09
A   11
C13
A   12
C14
A   13
C15
A   14
C16
A   15
C21
A   16
C22
A   17
C23
A   18
C24
A   19
C25
A   20
C26
A   21
C27
A   22
C29
A   23
F13
A   24
N01
A   25
N02
A   26
N28
M  END
>  <Id>  (17) 
6AV5_W82_B_804

>  <ChainId>  (17) 
B

>  <AsymId>  (17) 
I

>  <SeqNum>  (17) 
804

>  <Name>  (17) 
6-(2-{5-fluoro-3'-[(methylamino)methyl][1,1'-biphenyl]-3-yl}ethyl)-4-methylpyridin-2-amine

>  <SystematicName>  (17) 
6-[2-[3-fluoranyl-5-[3-(methylaminomethyl)phenyl]phenyl]ethyl]-4-methyl-pyridin-2-amine

>  <Synonyms>  (17) 


>  <Type>  (17) 
NON-POLYMER

>  <Formula>  (17) 
C22 H24 F N3

>  <ObservedFormula>  (17) 
C22 F N3

>  <MolecularWeight>  (17) 
349.444

>  <ModifiedDate>  (17) 
2018-07-06

>  <Parent>  (17) 


>  <OneLetterCode>  (17) 


>  <SubcomponentList>  (17) 


>  <AmbiguousFlag>  (17) 
N

>  <InsertionCode>  (17) 


>  <InstanceId>  (17) 
6AV5_W82_B_804

>  <ChemCompId>  (17) 
W82

>  <PdbId>  (17) 
6AV5

>  <ResidueNumber>  (17) 
804

>  <InChI>  (17) 
InChI=1S/C22H24FN3/c1-15-8-21(26-22(24)9-15)7-6-16-10-19(13-20(23)12-16)18-5-3-4-17(11-18)14-25-2/h3-5,8-13,25H,6-7,14H2,1-2H3,(H2,24,26)

>  <InChIKey>  (17) 
GVTRYBJMAVPTHT-UHFFFAOYSA-N

>  <SMILES>  (17) 
Cc1cc(nc(c1)N)CCc2cc(cc(c2)F)c3cccc(c3)CNC

>  <MissingHeavyAtoms>  (17) 
0

>  <Model>  (17) 
1

>  <AltIds>  (17) 


>  <pKI>  (17) 
7.08

>  <ChemblID>  (17) 
-

>  <standardized_canonical_smiles>  (17) 
CNCc1cccc(-c2cc(F)cc(CCc3cc(C)cc(N)n3)c2)c1

$$$$
6AV3_W79_B_803
     RDKit          3D

 25 27  0  0  0  0  0  0  0  0999 V2000
  120.6270  242.8930  322.9040 N   0  0  0  0  0  0  0  0  0  0  0  0
  119.6330  243.6480  322.3920 C   0  0  0  0  0  0  0  0  0  0  0  0
  119.9150  244.6750  321.4920 C   0  0  0  0  0  0  0  0  0  0  0  0
  118.8660  245.4300  320.9840 C   0  0  0  0  0  0  0  0  0  0  0  0
  119.1360  246.5450  320.0000 C   0  0  0  0  0  0  0  0  0  0  0  0
  117.5640  245.1360  321.3740 C   0  0  0  0  0  0  0  0  0  0  0  0
  118.3640  243.3840  322.7540 N   0  0  0  0  0  0  0  0  0  0  0  0
  117.3290  244.1020  322.2760 C   0  0  0  0  0  0  0  0  0  0  0  0
  115.9220  243.7530  322.6990 C   0  0  0  0  0  0  0  0  0  0  0  0
  115.3520  242.9830  321.5130 C   0  0  0  0  0  0  0  0  0  0  0  0
  114.0350  242.2780  321.7740 C   0  0  0  0  0  0  0  0  0  0  0  0
  113.2080  242.6320  322.8380 C   0  0  0  0  0  0  0  0  0  0  0  0
  113.6510  241.2480  320.9160 C   0  0  0  0  0  0  0  0  0  0  0  0
  112.4950  240.5960  321.1070 N   0  0  0  0  0  0  0  0  0  0  0  0
  111.6790  240.9210  322.1220 C   0  0  0  0  0  0  0  0  0  0  0  0
  112.0080  241.9450  323.0090 C   0  0  0  0  0  0  0  0  0  0  0  0
  111.0920  242.2600  324.1440 C   0  0  0  0  0  0  0  0  0  0  0  0
  111.6210  242.7200  325.3510 C   0  0  0  0  0  0  0  0  0  0  0  0
  109.7260  242.0580  324.0390 C   0  0  0  0  0  0  0  0  0  0  0  0
  108.8750  242.3300  325.1080 C   0  0  0  0  0  0  0  0  0  0  0  0
  109.4090  242.8010  326.2960 C   0  0  0  0  0  0  0  0  0  0  0  0
  110.7840  243.0040  326.4310 C   0  0  0  0  0  0  0  0  0  0  0  0
  111.3710  243.5010  327.7500 C   0  0  0  0  0  0  0  0  0  0  0  0
  111.7230  244.9340  327.7200 N   0  0  0  0  0  0  0  0  0  0  0  0
  110.5230  245.7800  327.5080 C   0  0  0  0  0  0  0  0  0  0  0  0
  2  1  1  0
  3  2  2  0
  7  2  1  0
  4  3  1  0
  5  4  1  0
  6  4  2  0
  8  6  1  0
  8  7  2  0
  9  8  1  0
 10  9  1  0
 11 10  1  0
 12 11  2  0
 13 11  1  0
 16 12  1  0
 14 13  2  0
 15 14  1  0
 16 15  2  0
 17 16  1  0
 18 17  2  0
 19 17  1  0
 22 18  1  0
 20 19  2  0
 21 20  1  0
 22 21  2  0
 23 22  1  0
 24 23  1  0
 25 24  1  0
A    1
N02
A    2
C02
A    3
C03
A    4
C04
A    5
C07
A    6
C05
A    7
N01
A    8
C06
A    9
C08
A   10
C09
A   11
C13
A   12
C14
A   13
C12
A   14
N11
A   15
C16
A   16
C15
A   17
C21
A   18
C26
A   19
C22
A   20
C23
A   21
C24
A   22
C25
A   23
C27
A   24
N28
A   25
C29
M  END
>  <Id>  (18) 
6AV3_W79_B_803

>  <ChainId>  (18) 
B

>  <AsymId>  (18) 
I

>  <SeqNum>  (18) 
803

>  <Name>  (18) 
4-methyl-6-[2-(5-{3-[(methylamino)methyl]phenyl}pyridin-3-yl)ethyl]pyridin-2-amine

>  <SystematicName>  (18) 
4-methyl-6-[2-[5-[3-(methylaminomethyl)phenyl]pyridin-3-yl]ethyl]pyridin-2-amine

>  <Synonyms>  (18) 


>  <Type>  (18) 
NON-POLYMER

>  <Formula>  (18) 
C21 H24 N4

>  <ObservedFormula>  (18) 
C21 N4

>  <MolecularWeight>  (18) 
332.442

>  <ModifiedDate>  (18) 
2018-07-06

>  <Parent>  (18) 


>  <OneLetterCode>  (18) 


>  <SubcomponentList>  (18) 


>  <AmbiguousFlag>  (18) 
N

>  <InsertionCode>  (18) 


>  <InstanceId>  (18) 
6AV3_W79_B_803

>  <ChemCompId>  (18) 
W79

>  <PdbId>  (18) 
6AV3

>  <ResidueNumber>  (18) 
803

>  <InChI>  (18) 
InChI=1S/C21H24N4/c1-15-8-20(25-21(22)9-15)7-6-17-11-19(14-24-13-17)18-5-3-4-16(10-18)12-23-2/h3-5,8-11,13-14,23H,6-7,12H2,1-2H3,(H2,22,25)

>  <InChIKey>  (18) 
MGNVQSKYSZRQCR-UHFFFAOYSA-N

>  <SMILES>  (18) 
Cc1cc(nc(c1)N)CCc2cc(cnc2)c3cccc(c3)CNC

>  <MissingHeavyAtoms>  (18) 
0

>  <Model>  (18) 
1

>  <AltIds>  (18) 


>  <pKI>  (18) 
7.09

>  <ChemblID>  (18) 
-

>  <standardized_canonical_smiles>  (18) 
CNCc1cccc(-c2cncc(CCc3cc(C)cc(N)n3)c2)c1

$$$$
5VUW_JHT_B_803
     RDKit          3D

 23 25  0  0  0  0  0  0  0  0999 V2000
  107.2200  249.0970  324.6390 C   0  0  0  0  0  0  0  0  0  0  0  0
  108.6390  248.9080  324.3610 N   0  0  0  0  0  0  0  0  0  0  0  0
  109.4790  250.0570  324.0750 C   0  0  0  0  0  0  0  0  0  0  0  0
  109.2340  247.6390  324.4040 C   0  0  0  0  0  0  0  0  0  0  0  0
  109.0050  246.6510  323.4420 C   0  0  0  0  0  0  0  0  0  0  0  0
  109.6300  245.4090  323.5360 C   0  0  0  0  0  0  0  0  0  0  0  0
  110.4920  245.1600  324.6020 C   0  0  0  0  0  0  0  0  0  0  0  0
  110.7210  246.1540  325.5610 C   0  0  0  0  0  0  0  0  0  0  0  0
  111.6530  245.9570  326.7300 C   0  0  0  0  0  0  0  0  0  0  0  0
  112.9860  246.4250  326.3120 N   0  0  0  0  0  0  0  0  0  0  0  0
  113.6630  245.2270  325.8120 C   0  0  0  0  0  0  0  0  0  0  0  0
  114.9720  245.4580  325.0950 C   0  0  0  0  0  0  0  0  0  0  0  0
  115.3050  246.6330  324.4220 C   0  0  0  0  0  0  0  0  0  0  0  0
  116.5300  246.7500  323.7540 C   0  0  0  0  0  0  0  0  0  0  0  0
  117.4310  245.6900  323.7960 C   0  0  0  0  0  0  0  0  0  0  0  0
  118.6650  245.7620  323.1630 C   0  0  0  0  0  0  0  0  0  0  0  0
  119.5130  244.6580  323.2610 C   0  0  0  0  0  0  0  0  0  0  0  0
  119.1390  243.5310  323.9960 C   0  0  0  0  0  0  0  0  0  0  0  0
  119.9430  242.4410  324.1300 N   0  0  0  0  0  0  0  0  0  0  0  0
  117.9380  243.4940  324.5760 N   0  0  0  0  0  0  0  0  0  0  0  0
  117.0950  244.5340  324.4940 C   0  0  0  0  0  0  0  0  0  0  0  0
  115.8770  244.4170  325.1310 C   0  0  0  0  0  0  0  0  0  0  0  0
  110.0980  247.3850  325.4550 C   0  0  0  0  0  0  0  0  0  0  0  0
  2  1  1  0
  3  2  1  0
  4  2  1  0
  5  4  2  0
 23  4  1  0
  6  5  1  0
  7  6  2  0
  8  7  1  0
  9  8  1  0
 23  8  2  0
 10  9  1  0
 11 10  1  0
 12 11  1  0
 13 12  2  0
 22 12  1  0
 14 13  1  0
 15 14  2  0
 16 15  1  0
 21 15  1  0
 17 16  2  0
 18 17  1  0
 19 18  1  0
 20 18  2  0
 21 20  1  0
 22 21  2  0
A    1
C01
A    2
N02
A    3
C03
A    4
C04
A    5
C05
A    6
C06
A    7
C07
A    8
C08
A    9
C09
A   10
N10
A   11
C11
A   12
C12
A   13
C13
A   14
C14
A   15
C15
A   16
C16
A   17
C17
A   18
C18
A   19
N19
A   20
N20
A   21
C21
A   22
C22
A   23
C23
M  END
>  <Id>  (19) 
5VUW_JHT_B_803

>  <ChainId>  (19) 
B

>  <AsymId>  (19) 
I

>  <SeqNum>  (19) 
803

>  <Name>  (19) 
7-[[[3-(dimethylamino)phenyl]methylamino]methyl]quinolin-2-amine

>  <SystematicName>  (19) 
7-[[[3-(dimethylamino)phenyl]methylamino]methyl]quinolin-2-amine

>  <Synonyms>  (19) 


>  <Type>  (19) 
non-polymer

>  <Formula>  (19) 
C19 H22 N4

>  <ObservedFormula>  (19) 
C19 N4

>  <MolecularWeight>  (19) 
306.405

>  <ModifiedDate>  (19) 
2016-09-16

>  <Parent>  (19) 


>  <OneLetterCode>  (19) 


>  <SubcomponentList>  (19) 


>  <AmbiguousFlag>  (19) 
N

>  <InsertionCode>  (19) 


>  <InstanceId>  (19) 
5VUW_JHT_B_803

>  <ChemCompId>  (19) 
JHT

>  <PdbId>  (19) 
5VUW

>  <ResidueNumber>  (19) 
803

>  <InChI>  (19) 
InChI=1S/C19H22N4/c1-23(2)17-5-3-4-14(10-17)12-21-13-15-6-7-16-8-9-19(20)22-18(16)11-15/h3-11,21H,12-13H2,1-2H3,(H2,20,22)

>  <InChIKey>  (19) 
SOVIURHDFSQRNW-UHFFFAOYSA-N

>  <SMILES>  (19) 
CN(C)c1cccc(c1)CNCc2ccc3ccc(nc3c2)N

>  <MissingHeavyAtoms>  (19) 
0

>  <Model>  (19) 
1

>  <AltIds>  (19) 


>  <pKI>  (19) 
5.99

>  <ChemblID>  (19) 
-

>  <standardized_canonical_smiles>  (19) 
CN(C)c1cccc(CNCc2ccc3ccc(N)nc3c2)c1

$$$$
5VUY_P64_B_803
     RDKit          3D

 24 26  0  0  0  0  0  0  0  0999 V2000
  105.3060  250.1600  329.8610 C   0  0  0  0  0  0  0  0  0  0  0  0
  105.9470  249.3080  330.8550 N   0  0  0  0  0  0  0  0  0  0  0  0
  105.2830  249.0310  332.1160 C   0  0  0  0  0  0  0  0  0  0  0  0
  109.3870  248.9010  329.5740 C   0  0  0  0  0  0  0  0  0  0  0  0
  108.1360  249.4530  329.8360 C   0  0  0  0  0  0  0  0  0  0  0  0
  107.2060  248.7460  330.5980 C   0  0  0  0  0  0  0  0  0  0  0  0
  107.5300  247.4860  331.1030 C   0  0  0  0  0  0  0  0  0  0  0  0
  108.7870  246.9350  330.8420 C   0  0  0  0  0  0  0  0  0  0  0  0
  109.7110  247.6460  330.0780 C   0  0  0  0  0  0  0  0  0  0  0  0
  111.0680  247.0640  329.7740 C   0  0  0  0  0  0  0  0  0  0  0  0
  111.1520  246.9620  328.2580 C   0  0  0  0  0  0  0  0  0  0  0  0
  112.5300  247.1720  327.7960 N   0  0  0  0  0  0  0  0  0  0  0  0
  113.1130  245.8600  327.5030 C   0  0  0  0  0  0  0  0  0  0  0  0
  116.6380  245.0780  326.4150 C   0  0  0  0  0  0  0  0  0  0  0  0
  115.3740  244.9660  326.9790 C   0  0  0  0  0  0  0  0  0  0  0  0
  114.4790  246.0210  326.8750 C   0  0  0  0  0  0  0  0  0  0  0  0
  114.8410  247.2090  326.2360 C   0  0  0  0  0  0  0  0  0  0  0  0
  116.0890  247.3720  325.6320 C   0  0  0  0  0  0  0  0  0  0  0  0
  117.0100  246.3310  325.7050 C   0  0  0  0  0  0  0  0  0  0  0  0
  118.2750  246.4300  325.1500 C   0  0  0  0  0  0  0  0  0  0  0  0
  119.1090  245.3310  325.2780 C   0  0  0  0  0  0  0  0  0  0  0  0
  118.7410  244.1680  325.9550 C   0  0  0  0  0  0  0  0  0  0  0  0
  119.6250  243.1360  326.0650 N   0  0  0  0  0  0  0  0  0  0  0  0
  117.5100  244.0540  326.5000 N   0  0  0  0  0  0  0  0  0  0  0  0
  2  1  1  0
  3  2  1  0
  6  2  1  0
  5  4  2  0
  9  4  1  0
  6  5  1  0
  7  6  2  0
  8  7  1  0
  9  8  2  0
 10  9  1  0
 11 10  1  0
 12 11  1  0
 13 12  1  0
 16 13  1  0
 15 14  2  0
 19 14  1  0
 24 14  1  0
 16 15  1  0
 17 16  2  0
 18 17  1  0
 19 18  2  0
 20 19  1  0
 21 20  2  0
 22 21  1  0
 23 22  1  0
 24 22  2  0
A    1
C28
A    2
N27
A    3
C29
A    4
C26
A    5
C25
A    6
C24
A    7
C23
A    8
C22
A    9
C21
A   10
C14
A   11
C13
A   12
N12
A   13
C11
A   14
C10
A   15
C09
A   16
C08
A   17
C07
A   18
C06
A   19
C05
A   20
C04
A   21
C03
A   22
C02
A   23
N02
A   24
N01
M  END
>  <Id>  (20) 
5VUY_P64_B_803

>  <ChainId>  (20) 
B

>  <AsymId>  (20) 
I

>  <SeqNum>  (20) 
803

>  <Name>  (20) 
7-[({2-[4-(dimethylamino)phenyl]ethyl}amino)methyl]quinolin-2-amine

>  <SystematicName>  (20) 
7-[[2-[4-(dimethylamino)phenyl]ethylamino]methyl]quinolin-2-amine

>  <Synonyms>  (20) 


>  <Type>  (20) 
NON-POLYMER

>  <Formula>  (20) 
C20 H24 N4

>  <ObservedFormula>  (20) 
C20 N4

>  <MolecularWeight>  (20) 
320.431

>  <ModifiedDate>  (20) 
2017-08-11

>  <Parent>  (20) 


>  <OneLetterCode>  (20) 


>  <SubcomponentList>  (20) 


>  <AmbiguousFlag>  (20) 
N

>  <InsertionCode>  (20) 


>  <InstanceId>  (20) 
5VUY_P64_B_803

>  <ChemCompId>  (20) 
P64

>  <PdbId>  (20) 
5VUY

>  <ResidueNumber>  (20) 
803

>  <InChI>  (20) 
InChI=1S/C20H24N4/c1-24(2)18-8-4-15(5-9-18)11-12-22-14-16-3-6-17-7-10-20(21)23-19(17)13-16/h3-10,13,22H,11-12,14H2,1-2H3,(H2,21,23)

>  <InChIKey>  (20) 
SYHMYZCWRIEYOI-UHFFFAOYSA-N

>  <SMILES>  (20) 
CN(C)c1ccc(cc1)CCNCc2ccc3ccc(nc3c2)N

>  <MissingHeavyAtoms>  (20) 
0

>  <Model>  (20) 
1

>  <AltIds>  (20) 


>  <pKI>  (20) 
6.56

>  <ChemblID>  (20) 
-

>  <standardized_canonical_smiles>  (20) 
CN(C)c1ccc(CCNCc2ccc3ccc(N)nc3c2)cc1

$$$$
5VUX_9P1_B_803
     RDKit          3D

 23 25  0  0  0  0  0  0  0  0999 V2000
  118.8120  243.9130  324.3350 C   0  0  0  0  0  0  0  0  0  0  0  0
  118.3950  246.2200  323.7720 C   0  0  0  0  0  0  0  0  0  0  0  0
  117.1740  246.1170  324.4340 C   0  0  0  0  0  0  0  0  0  0  0  0
  113.3890  245.7310  326.4980 C   0  0  0  0  0  0  0  0  0  0  0  0
  111.4930  247.0920  325.8720 C   0  0  0  0  0  0  0  0  0  0  0  0
  119.2130  245.0980  323.7190 C   0  0  0  0  0  0  0  0  0  0  0  0
  116.3160  247.2100  324.5190 C   0  0  0  0  0  0  0  0  0  0  0  0
  110.2150  247.1100  326.6930 C   0  0  0  0  0  0  0  0  0  0  0  0
  109.2850  246.0810  326.5590 C   0  0  0  0  0  0  0  0  0  0  0  0
  107.8320  247.1420  328.1860 C   0  0  0  0  0  0  0  0  0  0  0  0
  108.7610  248.1750  328.3140 C   0  0  0  0  0  0  0  0  0  0  0  0
  109.9390  248.1580  327.5690 C   0  0  0  0  0  0  0  0  0  0  0  0
  105.9390  245.9140  329.2470 C   0  0  0  0  0  0  0  0  0  0  0  0
  106.0990  248.4130  329.4460 C   0  0  0  0  0  0  0  0  0  0  0  0
  119.5950  242.8030  324.3180 N   0  0  0  0  0  0  0  0  0  0  0  0
  117.6240  243.8450  324.9610 N   0  0  0  0  0  0  0  0  0  0  0  0
  116.8030  244.9100  325.0270 C   0  0  0  0  0  0  0  0  0  0  0  0
  115.0980  247.0890  325.1970 C   0  0  0  0  0  0  0  0  0  0  0  0
  114.7180  245.8760  325.7750 C   0  0  0  0  0  0  0  0  0  0  0  0
  115.5840  244.7850  325.6900 C   0  0  0  0  0  0  0  0  0  0  0  0
  112.7030  247.0200  326.7150 N   0  0  0  0  0  0  0  0  0  0  0  0
  108.1060  246.0930  327.3050 C   0  0  0  0  0  0  0  0  0  0  0  0
  106.6400  247.1560  328.9450 N   0  0  0  0  0  0  0  0  0  0  0  0
  6  1  2  0
 15  1  1  0
 16  1  1  0
  3  2  2  0
  6  2  1  0
  7  3  1  0
 17  3  1  0
 19  4  1  0
 21  4  1  0
  8  5  1  0
 21  5  1  0
 18  7  2  0
  9  8  2  0
 12  8  1  0
 22  9  1  0
 11 10  1  0
 22 10  2  0
 23 10  1  0
 12 11  2  0
 23 13  1  0
 23 14  1  0
 17 16  2  0
 20 17  1  0
 19 18  1  0
 20 19  2  0
A    1
C02
A    2
C04
A    3
C05
A    4
C11
A    5
C13
A    6
C03
A    7
C06
A    8
C21
A    9
C22
A   10
C24
A   11
C25
A   12
C26
A   13
C28
A   14
C29
A   15
N02
A   16
N01
A   17
C10
A   18
C07
A   19
C08
A   20
C09
A   21
N12
A   22
C23
A   23
N27
M  END
>  <Id>  (21) 
5VUX_9P1_B_803

>  <ChainId>  (21) 
B

>  <AsymId>  (21) 
I

>  <SeqNum>  (21) 
803

>  <Name>  (21) 
7-[({[4-(dimethylamino)phenyl]methyl}amino)methyl]quinolin-2-amine

>  <SystematicName>  (21) 
7-[[[4-(dimethylamino)phenyl]methylamino]methyl]quinolin-2-amine

>  <Synonyms>  (21) 


>  <Type>  (21) 
NON-POLYMER

>  <Formula>  (21) 
C19 H22 N4

>  <ObservedFormula>  (21) 
C19 N4

>  <MolecularWeight>  (21) 
306.405

>  <ModifiedDate>  (21) 
2017-08-11

>  <Parent>  (21) 


>  <OneLetterCode>  (21) 


>  <SubcomponentList>  (21) 


>  <AmbiguousFlag>  (21) 
N

>  <InsertionCode>  (21) 


>  <InstanceId>  (21) 
5VUX_9P1_B_803

>  <ChemCompId>  (21) 
9P1

>  <PdbId>  (21) 
5VUX

>  <ResidueNumber>  (21) 
803

>  <InChI>  (21) 
InChI=1S/C19H22N4/c1-23(2)17-8-4-14(5-9-17)12-21-13-15-3-6-16-7-10-19(20)22-18(16)11-15/h3-11,21H,12-13H2,1-2H3,(H2,20,22)

>  <InChIKey>  (21) 
JEOSSXMVBYPUED-UHFFFAOYSA-N

>  <SMILES>  (21) 
CN(C)c1ccc(cc1)CNCc2ccc3ccc(nc3c2)N

>  <MissingHeavyAtoms>  (21) 
0

>  <Model>  (21) 
1

>  <AltIds>  (21) 


>  <pKI>  (21) 
6.12

>  <ChemblID>  (21) 
-

>  <standardized_canonical_smiles>  (21) 
CN(C)c1ccc(CNCc2ccc3ccc(N)nc3c2)cc1

$$$$
5UO1_8EV_B_803
     RDKit          3D

 24 26  0  0  0  0  0  0  0  0999 V2000
  117.4420  245.4670  324.5700 C   0  0  0  0  0  0  0  0  0  0  0  0
  111.4510  249.1100  325.0020 C   0  0  0  0  0  0  0  0  0  0  0  0
  110.1620  249.4420  325.3990 C   0  0  0  0  0  0  0  0  0  0  0  0
  108.8140  250.9960  324.0750 N   0  0  0  0  0  0  0  0  0  0  0  0
  109.4740  250.2520  324.6720 C   0  0  0  0  0  0  0  0  0  0  0  0
  109.6360  248.8840  326.5570 C   0  0  0  0  0  0  0  0  0  0  0  0
  110.3940  247.9940  327.3190 C   0  0  0  0  0  0  0  0  0  0  0  0
  109.7960  247.4090  328.5830 C   0  0  0  0  0  0  0  0  0  0  0  0
  109.4680  245.9850  328.4110 N   0  0  0  0  0  0  0  0  0  0  0  0
  108.4060  245.8260  327.4050 C   0  0  0  0  0  0  0  0  0  0  0  0
  112.2130  248.2310  325.7590 C   0  0  0  0  0  0  0  0  0  0  0  0
  111.6960  247.6700  326.9240 C   0  0  0  0  0  0  0  0  0  0  0  0
  113.4770  247.9430  325.3310 O   0  0  0  0  0  0  0  0  0  0  0  0
  114.2090  246.8670  325.9000 C   0  0  0  0  0  0  0  0  0  0  0  0
  115.4990  246.7420  325.1260 C   0  0  0  0  0  0  0  0  0  0  0  0
  116.2590  245.5980  325.2700 C   0  0  0  0  0  0  0  0  0  0  0  0
  115.9220  247.7530  324.2650 C   0  0  0  0  0  0  0  0  0  0  0  0
  117.1060  247.6150  323.5480 C   0  0  0  0  0  0  0  0  0  0  0  0
  117.8700  246.4640  323.7010 C   0  0  0  0  0  0  0  0  0  0  0  0
  119.0590  246.2920  323.0000 C   0  0  0  0  0  0  0  0  0  0  0  0
  119.7830  245.1170  323.2060 C   0  0  0  0  0  0  0  0  0  0  0  0
  119.3180  244.1540  324.1010 C   0  0  0  0  0  0  0  0  0  0  0  0
  120.0010  242.9990  324.3300 N   0  0  0  0  0  0  0  0  0  0  0  0
  118.1580  244.3440  324.7460 N   0  0  0  0  0  0  0  0  0  0  0  0
 16  1  2  0
 19  1  1  0
 24  1  1  0
  3  2  2  0
 11  2  1  0
  5  3  1  0
  6  3  1  0
  5  4  3  0
  7  6  2  0
  8  7  1  0
 12  7  1  0
  9  8  1  0
 10  9  1  0
 12 11  2  0
 13 11  1  0
 14 13  1  0
 15 14  1  0
 16 15  1  0
 17 15  2  0
 18 17  1  0
 19 18  2  0
 20 19  1  0
 21 20  2  0
 22 21  1  0
 23 22  1  0
 24 22  2  0
A    1
C10
A    2
C22
A    3
C23
A    4
N28
A    5
C27
A    6
C24
A    7
C25
A    8
C29
A    9
N30
A   10
C31
A   11
C21
A   12
C26
A   13
O12
A   14
C11
A   15
C08
A   16
C09
A   17
C07
A   18
C06
A   19
C05
A   20
C04
A   21
C03
A   22
C02
A   23
N02
A   24
N01
M  END
>  <Id>  (22) 
5UO1_8EV_B_803

>  <ChainId>  (22) 
B

>  <AsymId>  (22) 
J

>  <SeqNum>  (22) 
803

>  <Name>  (22) 
3-[(2-aminoquinolin-7-yl)methoxy]-5-[(methylamino)methyl]benzonitrile

>  <SystematicName>  (22) 
3-[(2-azanylquinolin-7-yl)methoxy]-5-(methylaminomethyl)benzenecarbonitrile

>  <Synonyms>  (22) 


>  <Type>  (22) 
NON-POLYMER

>  <Formula>  (22) 
C19 H18 N4 O

>  <ObservedFormula>  (22) 
C19 N4 O

>  <MolecularWeight>  (22) 
318.372

>  <ModifiedDate>  (22) 
2017-04-28

>  <Parent>  (22) 


>  <OneLetterCode>  (22) 


>  <SubcomponentList>  (22) 


>  <AmbiguousFlag>  (22) 
N

>  <InsertionCode>  (22) 


>  <InstanceId>  (22) 
5UO1_8EV_B_803

>  <ChemCompId>  (22) 
8EV

>  <PdbId>  (22) 
5UO1

>  <ResidueNumber>  (22) 
803

>  <InChI>  (22) 
InChI=1S/C19H18N4O/c1-22-11-15-6-14(10-20)7-17(8-15)24-12-13-2-3-16-4-5-19(21)23-18(16)9-13/h2-9,22H,11-12H2,1H3,(H2,21,23)

>  <InChIKey>  (22) 
QYHMAWINXHLCMX-UHFFFAOYSA-N

>  <SMILES>  (22) 
CNCc1cc(cc(c1)OCc2ccc3ccc(nc3c2)N)C#N

>  <MissingHeavyAtoms>  (22) 
0

>  <Model>  (22) 
1

>  <AltIds>  (22) 


>  <pKI>  (22) 
7.44

>  <ChemblID>  (22) 
-

>  <standardized_canonical_smiles>  (22) 
CNCc1cc(C#N)cc(OCc2ccc3ccc(N)nc3c2)c1

$$$$
5ADI_TUE_B_801
     RDKit          3D

 22 24  0  0  0  0  0  0  0  0999 V2000
  121.2480  282.4830  314.6700 N   0  0  0  0  0  0  0  0  0  0  0  0
  122.5980  282.4650  314.7570 C   0  0  0  0  0  0  0  0  0  0  0  0
  123.2010  282.4420  315.9730 N   0  0  0  0  0  0  0  0  0  0  0  0
  123.3700  282.4710  313.6000 C   0  0  0  0  0  0  0  0  0  0  0  0
  122.7480  282.4930  312.3530 C   0  0  0  0  0  0  0  0  0  0  0  0
  121.3620  282.5170  312.2890 C   0  0  0  0  0  0  0  0  0  0  0  0
  120.7160  282.5380  311.0560 C   0  0  0  0  0  0  0  0  0  0  0  0
  119.3250  282.5600  311.0080 C   0  0  0  0  0  0  0  0  0  0  0  0
  118.5880  282.5630  312.1920 C   0  0  0  0  0  0  0  0  0  0  0  0
  119.2400  282.5350  313.4230 C   0  0  0  0  0  0  0  0  0  0  0  0
  120.6270  282.5130  313.4720 C   0  0  0  0  0  0  0  0  0  0  0  0
  117.0750  282.5850  312.1580 C   0  0  0  0  0  0  0  0  0  0  0  0
  116.5530  282.7790  313.4770 O   0  0  0  0  0  0  0  0  0  0  0  0
  113.4880  282.0130  315.2520 N   0  0  0  0  0  0  0  0  0  0  0  0
  114.7870  282.2370  315.0120 C   0  0  0  0  0  0  0  0  0  0  0  0
  115.2240  282.5520  313.7270 C   0  0  0  0  0  0  0  0  0  0  0  0
  114.3030  282.6380  312.6900 C   0  0  0  0  0  0  0  0  0  0  0  0
  112.9660  282.4050  312.9670 C   0  0  0  0  0  0  0  0  0  0  0  0
  112.5800  282.0890  314.2670 C   0  0  0  0  0  0  0  0  0  0  0  0
  111.9450  282.4870  311.8560 C   0  0  0  0  0  0  0  0  0  0  0  0
  112.1100  281.3550  310.9520 N   0  0  0  0  0  0  0  0  0  0  0  0
  111.7970  280.1890  311.3200 C   0  0  0  0  0  0  0  0  0  0  0  0
  2  1  2  0
 11  1  1  0
  3  2  1  0
  4  2  1  0
  5  4  2  0
  6  5  1  0
  7  6  1  0
 11  6  2  0
  8  7  2  0
  9  8  1  0
 10  9  2  0
 12  9  1  0
 11 10  1  0
 13 12  1  0
 16 13  1  0
 15 14  2  0
 19 14  1  0
 16 15  1  0
 17 16  2  0
 18 17  1  0
 19 18  2  0
 20 18  1  0
 21 20  1  0
 22 21  2  0
A    1
N01
A    2
C02
A    3
N02
A    4
C03
A    5
C04
A    6
C05
A    7
C06
A    8
C07
A    9
C08
A   10
C09
A   11
C10
A   12
C11
A   13
O12
A   14
N21
A   15
C22
A   16
C23
A   17
C24
A   18
C25
A   19
C26
A   20
C27
A   21
N28
A   22
C29
M  END
>  <Id>  (23) 
5ADI_TUE_B_801

>  <ChainId>  (23) 
B

>  <AsymId>  (23) 
J

>  <SeqNum>  (23) 
801

>  <Name>  (23) 
7-[[5-[(methylideneamino)methyl]pyridin-3-yl]oxymethyl]quinolin-2-amine

>  <SystematicName>  (23) 
7-[[5-[(methylideneamino)methyl]pyridin-3-yl]oxymethyl]quinolin-2-amine

>  <Synonyms>  (23) 


>  <Type>  (23) 
NON-POLYMER

>  <Formula>  (23) 
C17 H16 N4 O

>  <ObservedFormula>  (23) 
C17 N4 O

>  <MolecularWeight>  (23) 
292.335

>  <ModifiedDate>  (23) 
2015-10-23

>  <Parent>  (23) 


>  <OneLetterCode>  (23) 


>  <SubcomponentList>  (23) 


>  <AmbiguousFlag>  (23) 
N

>  <InsertionCode>  (23) 


>  <InstanceId>  (23) 
5ADI_TUE_B_801

>  <ChemCompId>  (23) 
TUE

>  <PdbId>  (23) 
5ADI

>  <ResidueNumber>  (23) 
801

>  <InChI>  (23) 
InChI=1S/C17H16N4O/c1-19-8-13-6-15(10-20-9-13)22-11-12-2-3-14-4-5-17(18)21-16(14)7-12/h2-7,9-10H,1,8,11H2,(H2,18,21)

>  <InChIKey>  (23) 
JWSPKIZRSASLMF-UHFFFAOYSA-N

>  <SMILES>  (23) 
C=NCc1cc(cnc1)OCc2ccc3ccc(nc3c2)N

>  <MissingHeavyAtoms>  (23) 
0

>  <Model>  (23) 
1

>  <AltIds>  (23) 


>  <pKI>  (23) 
6.29

>  <ChemblID>  (23) 
-

>  <standardized_canonical_smiles>  (23) 
C=NCc1cncc(OCc2ccc3ccc(N)nc3c2)c1

$$$$
5UO4_8F1_B_803
     RDKit          3D

 26 28  0  0  0  0  0  0  0  0999 V2000
  108.7550  250.8710  324.6960 N   0  0  0  0  0  0  0  0  0  0  0  0
  109.3680  250.1280  325.3470 C   0  0  0  0  0  0  0  0  0  0  0  0
  110.1100  249.3570  326.0690 C   0  0  0  0  0  0  0  0  0  0  0  0
  109.6470  248.7810  327.2550 C   0  0  0  0  0  0  0  0  0  0  0  0
  110.4900  247.9510  328.0090 C   0  0  0  0  0  0  0  0  0  0  0  0
  110.0100  247.3090  329.3070 C   0  0  0  0  0  0  0  0  0  0  0  0
  108.8970  246.2980  329.0300 C   0  0  0  0  0  0  0  0  0  0  0  0
  109.3240  244.9320  329.3970 N   0  0  0  0  0  0  0  0  0  0  0  0
  108.2700  244.2530  330.1750 C   0  0  0  0  0  0  0  0  0  0  0  0
  111.4110  249.1100  325.6410 C   0  0  0  0  0  0  0  0  0  0  0  0
  112.2410  248.2950  326.3820 C   0  0  0  0  0  0  0  0  0  0  0  0
  111.7950  247.7110  327.5610 C   0  0  0  0  0  0  0  0  0  0  0  0
  113.5010  248.0890  325.9090 O   0  0  0  0  0  0  0  0  0  0  0  0
  114.4580  247.3070  326.6220 C   0  0  0  0  0  0  0  0  0  0  0  0
  115.6310  247.0310  325.7060 C   0  0  0  0  0  0  0  0  0  0  0  0
  116.4120  245.9110  325.9400 C   0  0  0  0  0  0  0  0  0  0  0  0
  115.9280  247.8830  324.6430 C   0  0  0  0  0  0  0  0  0  0  0  0
  117.0040  247.5930  323.8080 C   0  0  0  0  0  0  0  0  0  0  0  0
  117.7860  246.4670  324.0560 C   0  0  0  0  0  0  0  0  0  0  0  0
  118.8630  246.1660  323.2470 C   0  0  0  0  0  0  0  0  0  0  0  0
  119.1810  247.0480  322.0670 C   0  0  0  0  0  0  0  0  0  0  0  0
  119.6300  245.0390  323.5210 C   0  0  0  0  0  0  0  0  0  0  0  0
  119.3040  244.2300  324.6040 C   0  0  0  0  0  0  0  0  0  0  0  0
  120.0460  243.1300  324.8920 N   0  0  0  0  0  0  0  0  0  0  0  0
  118.2380  244.5400  325.3750 N   0  0  0  0  0  0  0  0  0  0  0  0
  117.4880  245.6300  325.1230 C   0  0  0  0  0  0  0  0  0  0  0  0
  2  1  3  0
  3  2  1  0
  4  3  2  0
 10  3  1  0
  5  4  1  0
  6  5  1  0
 12  5  2  0
  7  6  1  0
  8  7  1  0
  9  8  1  0
 11 10  2  0
 12 11  1  0
 13 11  1  0
 14 13  1  0
 15 14  1  0
 16 15  2  0
 17 15  1  0
 26 16  1  0
 18 17  2  0
 19 18  1  0
 20 19  1  0
 26 19  2  0
 21 20  1  0
 22 20  2  0
 23 22  1  0
 24 23  1  0
 25 23  2  0
 26 25  1  0
A    1
N28
A    2
C27
A    3
C23
A    4
C24
A    5
C25
A    6
C31
A    7
C32
A    8
N33
A    9
C34
A   10
C22
A   11
C21
A   12
C26
A   13
O13
A   14
C12
A   15
C08
A   16
C09
A   17
C07
A   18
C06
A   19
C05
A   20
C04
A   21
C11
A   22
C03
A   23
C02
A   24
N02
A   25
N01
A   26
C10
M  END
>  <Id>  (24) 
5UO4_8F1_B_803

>  <ChainId>  (24) 
B

>  <AsymId>  (24) 
L

>  <SeqNum>  (24) 
803

>  <Name>  (24) 
3-[(2-amino-4-methylquinolin-7-yl)methoxy]-5-[2-(methylamino)ethyl]benzonitrile

>  <SystematicName>  (24) 
3-[(2-azanyl-4-methyl-quinolin-7-yl)methoxy]-5-[2-(methylamino)ethyl]benzenecarbonitrile

>  <Synonyms>  (24) 


>  <Type>  (24) 
NON-POLYMER

>  <Formula>  (24) 
C21 H22 N4 O

>  <ObservedFormula>  (24) 
C21 N4 O

>  <MolecularWeight>  (24) 
346.426

>  <ModifiedDate>  (24) 
2017-04-28

>  <Parent>  (24) 


>  <OneLetterCode>  (24) 


>  <SubcomponentList>  (24) 


>  <AmbiguousFlag>  (24) 
N

>  <InsertionCode>  (24) 


>  <InstanceId>  (24) 
5UO4_8F1_B_803

>  <ChemCompId>  (24) 
8F1

>  <PdbId>  (24) 
5UO4

>  <ResidueNumber>  (24) 
803

>  <InChI>  (24) 
InChI=1S/C21H22N4O/c1-14-7-21(23)25-20-11-16(3-4-19(14)20)13-26-18-9-15(5-6-24-2)8-17(10-18)12-22/h3-4,7-11,24H,5-6,13H2,1-2H3,(H2,23,25)

>  <InChIKey>  (24) 
QKCPYJJSYKWGHS-UHFFFAOYSA-N

>  <SMILES>  (24) 
Cc1cc(nc2c1ccc(c2)COc3cc(cc(c3)C#N)CCNC)N

>  <MissingHeavyAtoms>  (24) 
0

>  <Model>  (24) 
1

>  <AltIds>  (24) 


>  <pKI>  (24) 
7.21

>  <ChemblID>  (24) 
-

>  <standardized_canonical_smiles>  (24) 
CNCCc1cc(C#N)cc(OCc2ccc3c(C)cc(N)nc3c2)c1

$$$$
6AUY_BYJ_B_803
     RDKit          3D

 21 22  0  0  0  0  0  0  0  0999 V2000
  120.5610  242.2340  325.1460 N   0  0  0  0  0  0  0  0  0  0  0  0
  119.5920  242.9930  324.6060 C   0  0  0  0  0  0  0  0  0  0  0  0
  119.9170  243.9380  323.6360 C   0  0  0  0  0  0  0  0  0  0  0  0
  118.9030  244.6980  323.0760 C   0  0  0  0  0  0  0  0  0  0  0  0
  117.5980  244.4890  323.4910 C   0  0  0  0  0  0  0  0  0  0  0  0
  119.2040  245.7310  322.0180 C   0  0  0  0  0  0  0  0  0  0  0  0
  118.3140  242.8110  324.9960 N   0  0  0  0  0  0  0  0  0  0  0  0
  117.3090  243.5380  324.4640 C   0  0  0  0  0  0  0  0  0  0  0  0
  115.8710  243.2990  324.8850 C   0  0  0  0  0  0  0  0  0  0  0  0
  115.5110  243.9700  326.1960 C   0  0  0  0  0  0  0  0  0  0  0  0
  114.8470  245.3000  325.9220 C   0  0  0  0  0  0  0  0  0  0  0  0
  113.4750  245.4700  326.1160 C   0  0  0  0  0  0  0  0  0  0  0  0
  115.6200  246.3610  325.4700 C   0  0  0  0  0  0  0  0  0  0  0  0
  115.0170  247.5840  325.2000 C   0  0  0  0  0  0  0  0  0  0  0  0
  113.6460  247.7550  325.3920 C   0  0  0  0  0  0  0  0  0  0  0  0
  112.8730  246.7000  325.8550 C   0  0  0  0  0  0  0  0  0  0  0  0
  111.3850  246.8840  326.0610 C   0  0  0  0  0  0  0  0  0  0  0  0
  110.8740  248.0890  325.2730 C   0  0  0  0  0  0  0  0  0  0  0  0
  109.4180  248.3990  325.6270 C   0  0  0  0  0  0  0  0  0  0  0  0
  109.2870  248.5610  327.0900 N   0  0  0  0  0  0  0  0  0  0  0  0
  107.9040  248.9240  327.4450 C   0  0  0  0  0  0  0  0  0  0  0  0
  2  1  1  0
  3  2  2  0
  7  2  1  0
  4  3  1  0
  5  4  2  0
  6  4  1  0
  8  5  1  0
  8  7  2  0
  9  8  1  0
 10  9  1  0
 11 10  1  0
 12 11  2  0
 13 11  1  0
 16 12  1  0
 14 13  2  0
 15 14  1  0
 16 15  2  0
 17 16  1  0
 18 17  1  0
 19 18  1  0
 20 19  1  0
 21 20  1  0
A    1
N02
A    2
C02
A    3
C03
A    4
C04
A    5
C05
A    6
C07
A    7
N01
A    8
C06
A    9
C08
A   10
C09
A   11
C11
A   12
C16
A   13
C12
A   14
C13
A   15
C14
A   16
C15
A   17
C17
A   18
C18
A   19
C19
A   20
N20
A   21
C21
M  END
>  <Id>  (25) 
6AUY_BYJ_B_803

>  <ChainId>  (25) 
B

>  <AsymId>  (25) 
K

>  <SeqNum>  (25) 
803

>  <Name>  (25) 
4-methyl-6-(2-{3-[3-(methylamino)propyl]phenyl}ethyl)pyridin-2-amine

>  <SystematicName>  (25) 
4-methyl-6-[2-[3-[3-(methylamino)propyl]phenyl]ethyl]pyridin-2-amine

>  <Synonyms>  (25) 


>  <Type>  (25) 
NON-POLYMER

>  <Formula>  (25) 
C18 H25 N3

>  <ObservedFormula>  (25) 
C18 N3

>  <MolecularWeight>  (25) 
283.411

>  <ModifiedDate>  (25) 
2018-07-06

>  <Parent>  (25) 


>  <OneLetterCode>  (25) 


>  <SubcomponentList>  (25) 


>  <AmbiguousFlag>  (25) 
N

>  <InsertionCode>  (25) 


>  <InstanceId>  (25) 
6AUY_BYJ_B_803

>  <ChemCompId>  (25) 
BYJ

>  <PdbId>  (25) 
6AUY

>  <ResidueNumber>  (25) 
803

>  <InChI>  (25) 
InChI=1S/C18H25N3/c1-14-11-17(21-18(19)12-14)9-8-16-6-3-5-15(13-16)7-4-10-20-2/h3,5-6,11-13,20H,4,7-10H2,1-2H3,(H2,19,21)

>  <InChIKey>  (25) 
CUTMJYPBBFYFJH-UHFFFAOYSA-N

>  <SMILES>  (25) 
Cc1cc(nc(c1)N)CCc2cccc(c2)CCCNC

>  <MissingHeavyAtoms>  (25) 
0

>  <Model>  (25) 
1

>  <AltIds>  (25) 


>  <pKI>  (25) 
7.26

>  <ChemblID>  (25) 
-

>  <standardized_canonical_smiles>  (25) 
CNCCCc1cccc(CCc2cc(C)cc(N)n2)c1

$$$$
6AV0_BYV_B_801
     RDKit          3D

 23 24  0  0  0  0  0  0  0  0999 V2000
  111.0160  238.8670  325.2060 N   0  0  0  0  0  0  0  0  0  0  0  0
  111.4320  239.9500  325.2350 C   0  0  0  0  0  0  0  0  0  0  0  0
  111.9140  241.1430  325.1960 C   0  0  0  0  0  0  0  0  0  0  0  0
  111.0980  242.2000  325.5660 C   0  0  0  0  0  0  0  0  0  0  0  0
  111.5890  243.4980  325.4990 C   0  0  0  0  0  0  0  0  0  0  0  0
  110.7070  244.6530  325.9200 C   0  0  0  0  0  0  0  0  0  0  0  0
  109.4890  244.1140  326.6600 C   0  0  0  0  0  0  0  0  0  0  0  0
  108.8820  245.1660  327.5860 C   0  0  0  0  0  0  0  0  0  0  0  0
  109.7780  245.3820  328.7370 N   0  0  0  0  0  0  0  0  0  0  0  0
  109.2480  246.4600  329.5850 C   0  0  0  0  0  0  0  0  0  0  0  0
  113.2100  241.3890  324.7360 C   0  0  0  0  0  0  0  0  0  0  0  0
  113.7140  242.6880  324.6740 C   0  0  0  0  0  0  0  0  0  0  0  0
  112.8900  243.7380  325.0540 C   0  0  0  0  0  0  0  0  0  0  0  0
  115.1280  242.9470  324.1830 C   0  0  0  0  0  0  0  0  0  0  0  0
  115.8370  244.1040  324.9040 C   0  0  0  0  0  0  0  0  0  0  0  0
  117.2350  244.1430  324.3260 C   0  0  0  0  0  0  0  0  0  0  0  0
  118.1790  243.2950  324.7820 N   0  0  0  0  0  0  0  0  0  0  0  0
  119.4270  243.2770  324.2710 C   0  0  0  0  0  0  0  0  0  0  0  0
  120.3280  242.3960  324.7800 N   0  0  0  0  0  0  0  0  0  0  0  0
  119.7690  244.1510  323.2450 C   0  0  0  0  0  0  0  0  0  0  0  0
  118.8100  245.0280  322.7570 C   0  0  0  0  0  0  0  0  0  0  0  0
  117.5390  245.0230  323.2970 C   0  0  0  0  0  0  0  0  0  0  0  0
  119.1240  245.9880  321.6360 C   0  0  0  0  0  0  0  0  0  0  0  0
  2  1  3  0
  3  2  1  0
  4  3  2  0
 11  3  1  0
  5  4  1  0
  6  5  1  0
 13  5  2  0
  7  6  1  0
  8  7  1  0
  9  8  1  0
 10  9  1  0
 12 11  2  0
 13 12  1  0
 14 12  1  0
 15 14  1  0
 16 15  1  0
 17 16  2  0
 22 16  1  0
 18 17  1  0
 19 18  1  0
 20 18  2  0
 21 20  1  0
 22 21  2  0
 23 21  1  0
A    1
N17
A    2
C17
A    3
C13
A    4
C14
A    5
C15
A    6
C18
A    7
C19
A    8
C20
A    9
N21
A   10
C22
A   11
C12
A   12
C11
A   13
C16
A   14
C09
A   15
C08
A   16
C06
A   17
N01
A   18
C02
A   19
N02
A   20
C03
A   21
C04
A   22
C05
A   23
C07
M  END
>  <Id>  (26) 
6AV0_BYV_B_801

>  <ChainId>  (26) 
B

>  <AsymId>  (26) 
G

>  <SeqNum>  (26) 
801

>  <Name>  (26) 
3-[2-(6-amino-4-methylpyridin-2-yl)ethyl]-5-[3-(methylamino)propyl]benzonitrile

>  <SystematicName>  (26) 
3-[2-(6-azanyl-4-methyl-pyridin-2-yl)ethyl]-5-[3-(methylamino)propyl]benzenecarbonitrile

>  <Synonyms>  (26) 


>  <Type>  (26) 
NON-POLYMER

>  <Formula>  (26) 
C19 H24 N4

>  <ObservedFormula>  (26) 
C19 N4

>  <MolecularWeight>  (26) 
308.421

>  <ModifiedDate>  (26) 
2018-07-06

>  <Parent>  (26) 


>  <OneLetterCode>  (26) 


>  <SubcomponentList>  (26) 


>  <AmbiguousFlag>  (26) 
N

>  <InsertionCode>  (26) 


>  <InstanceId>  (26) 
6AV0_BYV_B_801

>  <ChemCompId>  (26) 
BYV

>  <PdbId>  (26) 
6AV0

>  <ResidueNumber>  (26) 
801

>  <InChI>  (26) 
InChI=1S/C19H24N4/c1-14-8-18(23-19(21)9-14)6-5-16-10-15(4-3-7-22-2)11-17(12-16)13-20/h8-12,22H,3-7H2,1-2H3,(H2,21,23)

>  <InChIKey>  (26) 
ZTTVVSIEPMOZBM-UHFFFAOYSA-N

>  <SMILES>  (26) 
Cc1cc(nc(c1)N)CCc2cc(cc(c2)C#N)CCCNC

>  <MissingHeavyAtoms>  (26) 
0

>  <Model>  (26) 
1

>  <AltIds>  (26) 


>  <pKI>  (26) 
6.29

>  <ChemblID>  (26) 
-

>  <standardized_canonical_smiles>  (26) 
CNCCCc1cc(C#N)cc(CCc2cc(C)cc(N)n2)c1

$$$$
5UO7_8FD_B_804
     RDKit          3D

 27 29  0  0  0  0  0  0  0  0999 V2000
  108.4270  255.5270  325.3680 N   0  0  0  0  0  0  0  0  0  0  0  0
  109.1290  254.8540  325.9970 C   0  0  0  0  0  0  0  0  0  0  0  0
  109.9090  254.0830  326.6700 C   0  0  0  0  0  0  0  0  0  0  0  0
  109.4780  253.5900  327.9030 C   0  0  0  0  0  0  0  0  0  0  0  0
  110.3020  252.7710  328.6650 C   0  0  0  0  0  0  0  0  0  0  0  0
  109.8230  252.2270  329.9880 C   0  0  0  0  0  0  0  0  0  0  0  0
  109.4030  250.7740  329.7810 C   0  0  0  0  0  0  0  0  0  0  0  0
  108.1440  250.6720  328.9250 C   0  0  0  0  0  0  0  0  0  0  0  0
  109.1690  250.1170  331.0800 N   0  0  0  0  0  0  0  0  0  0  0  0
  108.6020  248.7690  330.8790 C   0  0  0  0  0  0  0  0  0  0  0  0
  111.1780  253.7710  326.2060 C   0  0  0  0  0  0  0  0  0  0  0  0
  112.0080  252.9500  326.9700 C   0  0  0  0  0  0  0  0  0  0  0  0
  111.5710  252.4480  328.1980 C   0  0  0  0  0  0  0  0  0  0  0  0
  113.2550  252.6520  326.4900 O   0  0  0  0  0  0  0  0  0  0  0  0
  114.2480  251.9770  327.2510 C   0  0  0  0  0  0  0  0  0  0  0  0
  115.4020  251.6730  326.3200 C   0  0  0  0  0  0  0  0  0  0  0  0
  116.2070  250.5600  326.5380 C   0  0  0  0  0  0  0  0  0  0  0  0
  115.6600  252.5040  325.2310 C   0  0  0  0  0  0  0  0  0  0  0  0
  116.7000  252.2170  324.3530 C   0  0  0  0  0  0  0  0  0  0  0  0
  117.5040  251.1090  324.5870 C   0  0  0  0  0  0  0  0  0  0  0  0
  118.5490  250.8220  323.7290 C   0  0  0  0  0  0  0  0  0  0  0  0
  118.7850  251.7240  322.5450 C   0  0  0  0  0  0  0  0  0  0  0  0
  119.3450  249.7080  323.9720 C   0  0  0  0  0  0  0  0  0  0  0  0
  119.0750  248.9040  325.0890 C   0  0  0  0  0  0  0  0  0  0  0  0
  119.8270  247.8030  325.3790 N   0  0  0  0  0  0  0  0  0  0  0  0
  118.0360  249.2000  325.8930 N   0  0  0  0  0  0  0  0  0  0  0  0
  117.2590  250.2820  325.6730 C   0  0  0  0  0  0  0  0  0  0  0  0
  2  1  3  0
  3  2  1  0
  4  3  2  0
 11  3  1  0
  5  4  1  0
  6  5  1  0
 13  5  2  0
  7  6  1  0
  8  7  1  0
  9  7  1  0
 10  9  1  0
 12 11  2  0
 13 12  1  0
 14 12  1  0
 15 14  1  0
 16 15  1  0
 17 16  2  0
 18 16  1  0
 27 17  1  0
 19 18  2  0
 20 19  1  0
 21 20  1  0
 27 20  2  0
 22 21  1  0
 23 21  2  0
 24 23  1  0
 25 24  1  0
 26 24  2  0
 27 26  1  0
A    1
N28
A    2
C27
A    3
C23
A    4
C24
A    5
C25
A    6
C31
A    7
C32
A    8
C33
A    9
N34
A   10
C35
A   11
C22
A   12
C21
A   13
C26
A   14
O13
A   15
C12
A   16
C08
A   17
C09
A   18
C07
A   19
C06
A   20
C05
A   21
C04
A   22
C11
A   23
C03
A   24
C02
A   25
N02
A   26
N01
A   27
C10
M  END
>  <Id>  (27) 
5UO7_8FD_B_804

>  <ChainId>  (27) 
B

>  <AsymId>  (27) 
I

>  <SeqNum>  (27) 
804

>  <Name>  (27) 
3-[(2-amino-4-methylquinolin-7-yl)methoxy]-5-[(2S)-2-(methylamino)propyl]benzonitrile

>  <SystematicName>  (27) 
3-[(2-azanyl-4-methyl-quinolin-7-yl)methoxy]-5-[(2~{S})-2-(methylamino)propyl]benzenecarbonitrile

>  <Synonyms>  (27) 


>  <Type>  (27) 
NON-POLYMER

>  <Formula>  (27) 
C22 H24 N4 O

>  <ObservedFormula>  (27) 
C22 N4 O

>  <MolecularWeight>  (27) 
360.452

>  <ModifiedDate>  (27) 
2017-04-28

>  <Parent>  (27) 


>  <OneLetterCode>  (27) 


>  <SubcomponentList>  (27) 


>  <AmbiguousFlag>  (27) 
N

>  <InsertionCode>  (27) 


>  <InstanceId>  (27) 
5UO7_8FD_B_804

>  <ChemCompId>  (27) 
8FD

>  <PdbId>  (27) 
5UO7

>  <ResidueNumber>  (27) 
804

>  <InChI>  (27) 
InChI=1S/C22H24N4O/c1-14-6-22(24)26-21-11-16(4-5-20(14)21)13-27-19-9-17(7-15(2)25-3)8-18(10-19)12-23/h4-6,8-11,15,25H,7,13H2,1-3H3,(H2,24,26)/t15-/m0/s1

>  <InChIKey>  (27) 
PUGNZMCPLRURSU-HNNXBMFYSA-N

>  <SMILES>  (27) 
Cc1cc(nc2c1ccc(c2)COc3cc(cc(c3)C#N)C[C@H](C)NC)N

>  <MissingHeavyAtoms>  (27) 
0

>  <Model>  (27) 
1

>  <AltIds>  (27) 


>  <pKI>  (27) 
7.24

>  <ChemblID>  (27) 
-

>  <standardized_canonical_smiles>  (27) 
CN[C@@H](C)Cc1cc(C#N)cc(OCc2ccc3c(C)cc(N)nc3c2)c1

$$$$
5UO5_8FD_B_804
     RDKit          3D

 27 29  0  0  0  0  0  0  0  0999 V2000
  108.8980  251.5360  325.1080 N   0  0  0  0  0  0  0  0  0  0  0  0
  109.5200  250.7580  325.6970 C   0  0  0  0  0  0  0  0  0  0  0  0
  110.2360  249.9230  326.3630 C   0  0  0  0  0  0  0  0  0  0  0  0
  109.7250  249.3260  327.5270 C   0  0  0  0  0  0  0  0  0  0  0  0
  110.5030  248.4230  328.2410 C   0  0  0  0  0  0  0  0  0  0  0  0
  109.9450  247.7830  329.4950 C   0  0  0  0  0  0  0  0  0  0  0  0
  109.3660  246.4060  329.1720 C   0  0  0  0  0  0  0  0  0  0  0  0
  107.9790  246.5170  328.5490 C   0  0  0  0  0  0  0  0  0  0  0  0
  109.2910  245.6050  330.4100 N   0  0  0  0  0  0  0  0  0  0  0  0
  108.7940  244.2500  330.1090 C   0  0  0  0  0  0  0  0  0  0  0  0
  111.5090  249.6180  325.9350 C   0  0  0  0  0  0  0  0  0  0  0  0
  112.2940  248.7190  326.6510 C   0  0  0  0  0  0  0  0  0  0  0  0
  111.7940  248.1180  327.8050 C   0  0  0  0  0  0  0  0  0  0  0  0
  113.5540  248.4420  326.1920 O   0  0  0  0  0  0  0  0  0  0  0  0
  114.5240  247.7620  326.9830 C   0  0  0  0  0  0  0  0  0  0  0  0
  115.6990  247.4410  326.0850 C   0  0  0  0  0  0  0  0  0  0  0  0
  116.4950  246.3340  326.3390 C   0  0  0  0  0  0  0  0  0  0  0  0
  115.9770  248.2510  324.9910 C   0  0  0  0  0  0  0  0  0  0  0  0
  117.0460  247.9510  324.1560 C   0  0  0  0  0  0  0  0  0  0  0  0
  117.8410  246.8440  324.4230 C   0  0  0  0  0  0  0  0  0  0  0  0
  118.9120  246.5300  323.6020 C   0  0  0  0  0  0  0  0  0  0  0  0
  119.2130  247.3890  322.4040 C   0  0  0  0  0  0  0  0  0  0  0  0
  119.6960  245.4190  323.8930 C   0  0  0  0  0  0  0  0  0  0  0  0
  119.3880  244.6380  325.0020 C   0  0  0  0  0  0  0  0  0  0  0  0
  120.1310  243.5480  325.3170 N   0  0  0  0  0  0  0  0  0  0  0  0
  118.3310  244.9650  325.7700 N   0  0  0  0  0  0  0  0  0  0  0  0
  117.5630  246.0390  325.5110 C   0  0  0  0  0  0  0  0  0  0  0  0
  2  1  3  0
  3  2  1  0
  4  3  2  0
 11  3  1  0
  5  4  1  0
  6  5  1  0
 13  5  2  0
  7  6  1  0
  8  7  1  0
  9  7  1  0
 10  9  1  0
 12 11  2  0
 13 12  1  0
 14 12  1  0
 15 14  1  0
 16 15  1  0
 17 16  2  0
 18 16  1  0
 27 17  1  0
 19 18  2  0
 20 19  1  0
 21 20  1  0
 27 20  2  0
 22 21  1  0
 23 21  2  0
 24 23  1  0
 25 24  1  0
 26 24  2  0
 27 26  1  0
A    1
N28
A    2
C27
A    3
C23
A    4
C24
A    5
C25
A    6
C31
A    7
C32
A    8
C33
A    9
N34
A   10
C35
A   11
C22
A   12
C21
A   13
C26
A   14
O13
A   15
C12
A   16
C08
A   17
C09
A   18
C07
A   19
C06
A   20
C05
A   21
C04
A   22
C11
A   23
C03
A   24
C02
A   25
N02
A   26
N01
A   27
C10
M  END
>  <Id>  (28) 
5UO5_8FD_B_804

>  <ChainId>  (28) 
B

>  <AsymId>  (28) 
K

>  <SeqNum>  (28) 
804

>  <Name>  (28) 
3-[(2-amino-4-methylquinolin-7-yl)methoxy]-5-[(2S)-2-(methylamino)propyl]benzonitrile

>  <SystematicName>  (28) 
3-[(2-azanyl-4-methyl-quinolin-7-yl)methoxy]-5-[(2~{S})-2-(methylamino)propyl]benzenecarbonitrile

>  <Synonyms>  (28) 


>  <Type>  (28) 
NON-POLYMER

>  <Formula>  (28) 
C22 H24 N4 O

>  <ObservedFormula>  (28) 
C22 N4 O

>  <MolecularWeight>  (28) 
360.452

>  <ModifiedDate>  (28) 
2017-04-28

>  <Parent>  (28) 


>  <OneLetterCode>  (28) 


>  <SubcomponentList>  (28) 


>  <AmbiguousFlag>  (28) 
N

>  <InsertionCode>  (28) 


>  <InstanceId>  (28) 
5UO5_8FD_B_804

>  <ChemCompId>  (28) 
8FD

>  <PdbId>  (28) 
5UO5

>  <ResidueNumber>  (28) 
804

>  <InChI>  (28) 
InChI=1S/C22H24N4O/c1-14-6-22(24)26-21-11-16(4-5-20(14)21)13-27-19-9-17(7-15(2)25-3)8-18(10-19)12-23/h4-6,8-11,15,25H,7,13H2,1-3H3,(H2,24,26)/t15-/m0/s1

>  <InChIKey>  (28) 
PUGNZMCPLRURSU-HNNXBMFYSA-N

>  <SMILES>  (28) 
Cc1cc(nc2c1ccc(c2)COc3cc(cc(c3)C#N)C[C@H](C)NC)N

>  <MissingHeavyAtoms>  (28) 
0

>  <Model>  (28) 
1

>  <AltIds>  (28) 


>  <pKI>  (28) 
7.24

>  <ChemblID>  (28) 
-

>  <standardized_canonical_smiles>  (28) 
CN[C@@H](C)Cc1cc(C#N)cc(OCc2ccc3c(C)cc(N)nc3c2)c1

$$$$
5UO5_M4R_B_803
     RDKit          3D

 27 29  0  0  0  0  0  0  0  0999 V2000
  108.7950  251.4820  325.1320 N   0  0  0  0  0  0  0  0  0  0  0  0
  109.4020  250.7090  325.7400 C   0  0  0  0  0  0  0  0  0  0  0  0
  110.1160  249.8840  326.4200 C   0  0  0  0  0  0  0  0  0  0  0  0
  109.6470  249.3210  327.6040 C   0  0  0  0  0  0  0  0  0  0  0  0
  110.4410  248.4250  328.3200 C   0  0  0  0  0  0  0  0  0  0  0  0
  109.9380  247.8070  329.6100 C   0  0  0  0  0  0  0  0  0  0  0  0
  108.9990  246.6090  329.4360 C   0  0  0  0  0  0  0  0  0  0  0  0
  108.8290  246.1300  327.9940 C   0  0  0  0  0  0  0  0  0  0  0  0
  109.5070  245.4850  330.2500 N   0  0  0  0  0  0  0  0  0  0  0  0
  108.4010  244.5980  330.6470 C   0  0  0  0  0  0  0  0  0  0  0  0
  111.3880  249.5670  325.9560 C   0  0  0  0  0  0  0  0  0  0  0  0
  112.1880  248.6890  326.6770 C   0  0  0  0  0  0  0  0  0  0  0  0
  111.7200  248.1160  327.8580 C   0  0  0  0  0  0  0  0  0  0  0  0
  113.4320  248.3970  326.1920 O   0  0  0  0  0  0  0  0  0  0  0  0
  114.5030  247.9590  327.0280 C   0  0  0  0  0  0  0  0  0  0  0  0
  115.6540  247.6420  326.1030 C   0  0  0  0  0  0  0  0  0  0  0  0
  116.4590  246.5380  326.3390 C   0  0  0  0  0  0  0  0  0  0  0  0
  115.8940  248.4510  325.0000 C   0  0  0  0  0  0  0  0  0  0  0  0
  116.9410  248.1550  324.1380 C   0  0  0  0  0  0  0  0  0  0  0  0
  117.7480  247.0520  324.3870 C   0  0  0  0  0  0  0  0  0  0  0  0
  118.7960  246.7470  323.5340 C   0  0  0  0  0  0  0  0  0  0  0  0
  119.0570  247.6120  322.3270 C   0  0  0  0  0  0  0  0  0  0  0  0
  119.5920  245.6400  323.8040 C   0  0  0  0  0  0  0  0  0  0  0  0
  119.3200  244.8570  324.9230 C   0  0  0  0  0  0  0  0  0  0  0  0
  120.0810  243.7730  325.2160 N   0  0  0  0  0  0  0  0  0  0  0  0
  118.2830  245.1710  325.7260 N   0  0  0  0  0  0  0  0  0  0  0  0
  117.5060  246.2450  325.4840 C   0  0  0  0  0  0  0  0  0  0  0  0
  2  1  3  0
  3  2  1  0
  4  3  2  0
 11  3  1  0
  5  4  1  0
  6  5  1  0
 13  5  2  0
  7  6  1  0
  8  7  1  0
  9  7  1  0
 10  9  1  0
 12 11  2  0
 13 12  1  0
 14 12  1  0
 15 14  1  0
 16 15  1  0
 17 16  2  0
 18 16  1  0
 27 17  1  0
 19 18  2  0
 20 19  1  0
 21 20  1  0
 27 20  2  0
 22 21  1  0
 23 21  2  0
 24 23  1  0
 25 24  1  0
 26 24  2  0
 27 26  1  0
A    1
N28
A    2
C27
A    3
C23
A    4
C24
A    5
C25
A    6
C29
A    7
C30
A    8
C31
A    9
N32
A   10
C33
A   11
C22
A   12
C21
A   13
C26
A   14
O13
A   15
C12
A   16
C08
A   17
C09
A   18
C07
A   19
C06
A   20
C05
A   21
C04
A   22
C11
A   23
C03
A   24
C02
A   25
N02
A   26
N01
A   27
C10
M  END
>  <Id>  (29) 
5UO5_M4R_B_803

>  <ChainId>  (29) 
B

>  <AsymId>  (29) 
J

>  <SeqNum>  (29) 
803

>  <Name>  (29) 
3-[(2-amino-4-methylquinolin-7-yl)methoxy]-5-[(2R)-2-(methylamino)propyl]benzonitrile

>  <SystematicName>  (29) 
3-[(2-azanyl-4-methyl-quinolin-7-yl)methoxy]-5-[(2~{R})-2-(methylamino)propyl]benzenecarbonitrile

>  <Synonyms>  (29) 


>  <Type>  (29) 
NON-POLYMER

>  <Formula>  (29) 
C22 H24 N4 O

>  <ObservedFormula>  (29) 
C22 N4 O

>  <MolecularWeight>  (29) 
360.452

>  <ModifiedDate>  (29) 
2017-04-28

>  <Parent>  (29) 


>  <OneLetterCode>  (29) 


>  <SubcomponentList>  (29) 


>  <AmbiguousFlag>  (29) 
N

>  <InsertionCode>  (29) 


>  <InstanceId>  (29) 
5UO5_M4R_B_803

>  <ChemCompId>  (29) 
M4R

>  <PdbId>  (29) 
5UO5

>  <ResidueNumber>  (29) 
803

>  <InChI>  (29) 
InChI=1S/C22H24N4O/c1-14-6-22(24)26-21-11-16(4-5-20(14)21)13-27-19-9-17(7-15(2)25-3)8-18(10-19)12-23/h4-6,8-11,15,25H,7,13H2,1-3H3,(H2,24,26)/t15-/m1/s1

>  <InChIKey>  (29) 
PUGNZMCPLRURSU-OAHLLOKOSA-N

>  <SMILES>  (29) 
Cc1cc(nc2c1ccc(c2)COc3cc(cc(c3)C#N)C[C@@H](C)NC)N

>  <MissingHeavyAtoms>  (29) 
0

>  <Model>  (29) 
1

>  <AltIds>  (29) 


>  <pKI>  (29) 
7.16

>  <ChemblID>  (29) 
-

>  <standardized_canonical_smiles>  (29) 
CN[C@H](C)Cc1cc(C#N)cc(OCc2ccc3c(C)cc(N)nc3c2)c1

$$$$
5UO6_M4R_B_803
     RDKit          3D

 27 29  0  0  0  0  0  0  0  0999 V2000
  109.7560  255.0210  329.4440 N   0  0  0  0  0  0  0  0  0  0  0  0
  110.4540  254.3390  330.0730 C   0  0  0  0  0  0  0  0  0  0  0  0
  111.2410  253.6120  330.7810 C   0  0  0  0  0  0  0  0  0  0  0  0
  110.8560  253.1120  332.0290 C   0  0  0  0  0  0  0  0  0  0  0  0
  111.7500  252.3390  332.7710 C   0  0  0  0  0  0  0  0  0  0  0  0
  111.3690  251.7710  334.1250 C   0  0  0  0  0  0  0  0  0  0  0  0
  110.2810  250.7100  333.9850 C   0  0  0  0  0  0  0  0  0  0  0  0
  110.5240  249.7780  332.8020 C   0  0  0  0  0  0  0  0  0  0  0  0
  110.2250  249.9080  335.2230 N   0  0  0  0  0  0  0  0  0  0  0  0
  109.1520  248.9020  335.1240 C   0  0  0  0  0  0  0  0  0  0  0  0
  112.5100  253.3460  330.2860 C   0  0  0  0  0  0  0  0  0  0  0  0
  113.3990  252.5770  331.0240 C   0  0  0  0  0  0  0  0  0  0  0  0
  113.0240  252.0740  332.2670 C   0  0  0  0  0  0  0  0  0  0  0  0
  114.6320  252.3350  330.4990 O   0  0  0  0  0  0  0  0  0  0  0  0
  115.6940  251.7710  331.2660 C   0  0  0  0  0  0  0  0  0  0  0  0
  116.8550  251.4940  330.3310 C   0  0  0  0  0  0  0  0  0  0  0  0
  117.6860  250.4120  330.5710 C   0  0  0  0  0  0  0  0  0  0  0  0
  117.0860  252.3090  329.2240 C   0  0  0  0  0  0  0  0  0  0  0  0
  118.1500  252.0500  328.3620 C   0  0  0  0  0  0  0  0  0  0  0  0
  118.9780  250.9610  328.6040 C   0  0  0  0  0  0  0  0  0  0  0  0
  120.0530  250.6840  327.7690 C   0  0  0  0  0  0  0  0  0  0  0  0
  120.3170  251.5390  326.5480 C   0  0  0  0  0  0  0  0  0  0  0  0
  120.8590  249.5880  328.0570 C   0  0  0  0  0  0  0  0  0  0  0  0
  120.5950  248.8030  329.1750 C   0  0  0  0  0  0  0  0  0  0  0  0
  121.3710  247.7310  329.4850 N   0  0  0  0  0  0  0  0  0  0  0  0
  119.5430  249.1020  329.9660 N   0  0  0  0  0  0  0  0  0  0  0  0
  118.7440  250.1510  329.7120 C   0  0  0  0  0  0  0  0  0  0  0  0
  2  1  3  0
  3  2  1  0
  4  3  2  0
 11  3  1  0
  5  4  1  0
  6  5  1  0
 13  5  2  0
  7  6  1  0
  8  7  1  0
  9  7  1  0
 10  9  1  0
 12 11  2  0
 13 12  1  0
 14 12  1  0
 15 14  1  0
 16 15  1  0
 17 16  2  0
 18 16  1  0
 27 17  1  0
 19 18  2  0
 20 19  1  0
 21 20  1  0
 27 20  2  0
 22 21  1  0
 23 21  2  0
 24 23  1  0
 25 24  1  0
 26 24  2  0
 27 26  1  0
A    1
N28
A    2
C27
A    3
C23
A    4
C24
A    5
C25
A    6
C29
A    7
C30
A    8
C31
A    9
N32
A   10
C33
A   11
C22
A   12
C21
A   13
C26
A   14
O13
A   15
C12
A   16
C08
A   17
C09
A   18
C07
A   19
C06
A   20
C05
A   21
C04
A   22
C11
A   23
C03
A   24
C02
A   25
N02
A   26
N01
A   27
C10
M  END
>  <Id>  (30) 
5UO6_M4R_B_803

>  <ChainId>  (30) 
B

>  <AsymId>  (30) 
K

>  <SeqNum>  (30) 
803

>  <Name>  (30) 
3-[(2-amino-4-methylquinolin-7-yl)methoxy]-5-[(2R)-2-(methylamino)propyl]benzonitrile

>  <SystematicName>  (30) 
3-[(2-azanyl-4-methyl-quinolin-7-yl)methoxy]-5-[(2~{R})-2-(methylamino)propyl]benzenecarbonitrile

>  <Synonyms>  (30) 


>  <Type>  (30) 
NON-POLYMER

>  <Formula>  (30) 
C22 H24 N4 O

>  <ObservedFormula>  (30) 
C22 N4 O

>  <MolecularWeight>  (30) 
360.452

>  <ModifiedDate>  (30) 
2017-04-28

>  <Parent>  (30) 


>  <OneLetterCode>  (30) 


>  <SubcomponentList>  (30) 


>  <AmbiguousFlag>  (30) 
N

>  <InsertionCode>  (30) 


>  <InstanceId>  (30) 
5UO6_M4R_B_803

>  <ChemCompId>  (30) 
M4R

>  <PdbId>  (30) 
5UO6

>  <ResidueNumber>  (30) 
803

>  <InChI>  (30) 
InChI=1S/C22H24N4O/c1-14-6-22(24)26-21-11-16(4-5-20(14)21)13-27-19-9-17(7-15(2)25-3)8-18(10-19)12-23/h4-6,8-11,15,25H,7,13H2,1-3H3,(H2,24,26)/t15-/m1/s1

>  <InChIKey>  (30) 
PUGNZMCPLRURSU-OAHLLOKOSA-N

>  <SMILES>  (30) 
Cc1cc(nc2c1ccc(c2)COc3cc(cc(c3)C#N)C[C@@H](C)NC)N

>  <MissingHeavyAtoms>  (30) 
0

>  <Model>  (30) 
1

>  <AltIds>  (30) 


>  <pKI>  (30) 
7.16

>  <ChemblID>  (30) 
-

>  <standardized_canonical_smiles>  (30) 
CN[C@H](C)Cc1cc(C#N)cc(OCc2ccc3c(C)cc(N)nc3c2)c1

$$$$
6AUZ_W68_B_803
     RDKit          3D

 22 23  0  0  0  0  0  0  0  0999 V2000
  111.1480  240.0480  321.7930 F   0  0  0  0  0  0  0  0  0  0  0  0
  111.6880  240.9390  322.6490 C   0  0  0  0  0  0  0  0  0  0  0  0
  110.9700  241.3670  323.7650 C   0  0  0  0  0  0  0  0  0  0  0  0
  111.5370  242.2880  324.6460 C   0  0  0  0  0  0  0  0  0  0  0  0
  110.7760  242.7650  325.8650 C   0  0  0  0  0  0  0  0  0  0  0  0
  109.7190  243.7860  325.4580 C   0  0  0  0  0  0  0  0  0  0  0  0
  108.9060  244.2560  326.6640 C   0  0  0  0  0  0  0  0  0  0  0  0
  109.7590  244.9930  327.6190 N   0  0  0  0  0  0  0  0  0  0  0  0
  108.9790  245.3710  328.8110 C   0  0  0  0  0  0  0  0  0  0  0  0
  112.9690  241.4350  322.4200 C   0  0  0  0  0  0  0  0  0  0  0  0
  113.5420  242.3560  323.2970 C   0  0  0  0  0  0  0  0  0  0  0  0
  112.8200  242.7830  324.4060 C   0  0  0  0  0  0  0  0  0  0  0  0
  114.9350  242.8630  323.0040 C   0  0  0  0  0  0  0  0  0  0  0  0
  115.5620  243.8290  324.0100 C   0  0  0  0  0  0  0  0  0  0  0  0
  116.9560  243.9380  323.4330 C   0  0  0  0  0  0  0  0  0  0  0  0
  117.9140  243.0940  323.8500 N   0  0  0  0  0  0  0  0  0  0  0  0
  119.1660  243.1200  323.3520 C   0  0  0  0  0  0  0  0  0  0  0  0
  120.0810  242.2310  323.8310 N   0  0  0  0  0  0  0  0  0  0  0  0
  119.4970  244.0340  322.3460 C   0  0  0  0  0  0  0  0  0  0  0  0
  118.5180  244.9060  321.8870 C   0  0  0  0  0  0  0  0  0  0  0  0
  117.2410  244.8530  322.4300 C   0  0  0  0  0  0  0  0  0  0  0  0
  118.8170  245.9140  320.8050 C   0  0  0  0  0  0  0  0  0  0  0  0
  2  1  1  0
  3  2  2  0
 10  2  1  0
  4  3  1  0
  5  4  1  0
 12  4  2  0
  6  5  1  0
  7  6  1  0
  8  7  1  0
  9  8  1  0
 11 10  2  0
 12 11  1  0
 13 11  1  0
 14 13  1  0
 15 14  1  0
 16 15  2  0
 21 15  1  0
 17 16  1  0
 18 17  1  0
 19 17  2  0
 20 19  1  0
 21 20  2  0
 22 20  1  0
A    1
F13
A    2
C13
A    3
C14
A    4
C15
A    5
C17
A    6
C18
A    7
C19
A    8
N20
A    9
C21
A   10
C12
A   11
C11
A   12
C16
A   13
C09
A   14
C08
A   15
C06
A   16
N01
A   17
C02
A   18
N02
A   19
C03
A   20
C04
A   21
C05
A   22
C07
M  END
>  <Id>  (31) 
6AUZ_W68_B_803

>  <ChainId>  (31) 
B

>  <AsymId>  (31) 
I

>  <SeqNum>  (31) 
803

>  <Name>  (31) 
6-(2-{3-fluoro-5-[3-(methylamino)propyl]phenyl}ethyl)-4-methylpyridin-2-amine

>  <SystematicName>  (31) 
6-[2-[3-fluoranyl-5-[3-(methylamino)propyl]phenyl]ethyl]-4-methyl-pyridin-2-amine

>  <Synonyms>  (31) 


>  <Type>  (31) 
NON-POLYMER

>  <Formula>  (31) 
C18 H24 F N3

>  <ObservedFormula>  (31) 
C18 F N3

>  <MolecularWeight>  (31) 
301.402

>  <ModifiedDate>  (31) 
2018-07-06

>  <Parent>  (31) 


>  <OneLetterCode>  (31) 


>  <SubcomponentList>  (31) 


>  <AmbiguousFlag>  (31) 
N

>  <InsertionCode>  (31) 


>  <InstanceId>  (31) 
6AUZ_W68_B_803

>  <ChemCompId>  (31) 
W68

>  <PdbId>  (31) 
6AUZ

>  <ResidueNumber>  (31) 
803

>  <InChI>  (31) 
InChI=1S/C18H24FN3/c1-13-8-17(22-18(20)9-13)6-5-15-10-14(4-3-7-21-2)11-16(19)12-15/h8-12,21H,3-7H2,1-2H3,(H2,20,22)

>  <InChIKey>  (31) 
PEJWJTGGAYICCM-UHFFFAOYSA-N

>  <SMILES>  (31) 
Cc1cc(nc(c1)N)CCc2cc(cc(c2)F)CCCNC

>  <MissingHeavyAtoms>  (31) 
0

>  <Model>  (31) 
1

>  <AltIds>  (31) 


>  <pKI>  (31) 
7.19

>  <ChemblID>  (31) 
-

>  <standardized_canonical_smiles>  (31) 
CNCCCc1cc(F)cc(CCc2cc(C)cc(N)n2)c1

$$$$
5VV1_9OS_B_803
     RDKit          3D

 24 26  0  0  0  0  0  0  0  0999 V2000
  116.4860  244.6810  324.4170 C   0  0  0  0  0  0  0  0  0  0  0  0
  113.0080  245.3440  325.7130 C   0  0  0  0  0  0  0  0  0  0  0  0
  119.3270  242.5660  323.9670 N   0  0  0  0  0  0  0  0  0  0  0  0
  118.5290  243.6690  323.8800 C   0  0  0  0  0  0  0  0  0  0  0  0
  117.3170  243.6240  324.4610 N   0  0  0  0  0  0  0  0  0  0  0  0
  118.9370  244.8320  323.2140 C   0  0  0  0  0  0  0  0  0  0  0  0
  118.0970  245.9510  323.1660 C   0  0  0  0  0  0  0  0  0  0  0  0
  116.8520  245.8640  323.7790 C   0  0  0  0  0  0  0  0  0  0  0  0
  115.9580  246.9400  323.7780 C   0  0  0  0  0  0  0  0  0  0  0  0
  114.7030  246.8110  324.3980 C   0  0  0  0  0  0  0  0  0  0  0  0
  114.3360  245.6130  325.0220 C   0  0  0  0  0  0  0  0  0  0  0  0
  115.2390  244.5590  325.0210 C   0  0  0  0  0  0  0  0  0  0  0  0
  112.2600  246.4490  326.3370 N   0  0  0  0  0  0  0  0  0  0  0  0
  111.1440  245.7890  327.0450 C   0  0  0  0  0  0  0  0  0  0  0  0
  110.1690  246.7530  327.7180 C   0  0  0  0  0  0  0  0  0  0  0  0
  109.7170  246.2450  329.0910 C   0  0  0  0  0  0  0  0  0  0  0  0
  108.2560  246.5770  329.3230 C   0  0  0  0  0  0  0  0  0  0  0  0
  107.3900  246.6290  328.2310 C   0  0  0  0  0  0  0  0  0  0  0  0
  107.7520  246.8250  330.5980 C   0  0  0  0  0  0  0  0  0  0  0  0
  108.5520  246.7900  331.7160 O   0  0  0  0  0  0  0  0  0  0  0  0
  108.0490  247.2730  332.9620 C   0  0  0  0  0  0  0  0  0  0  0  0
  106.4000  247.1260  330.7340 C   0  0  0  0  0  0  0  0  0  0  0  0
  105.5830  247.1650  329.6080 C   0  0  0  0  0  0  0  0  0  0  0  0
  106.0900  246.9190  328.3930 N   0  0  0  0  0  0  0  0  0  0  0  0
  5  1  1  0
  8  1  2  0
 12  1  1  0
 11  2  1  0
 13  2  1  0
  4  3  1  0
  5  4  2  0
  6  4  1  0
  7  6  2  0
  8  7  1  0
  9  8  1  0
 10  9  2  0
 11 10  1  0
 12 11  2  0
 14 13  1  0
 15 14  1  0
 16 15  1  0
 17 16  1  0
 18 17  2  0
 19 17  1  0
 24 18  1  0
 20 19  1  0
 22 19  2  0
 21 20  1  0
 23 22  1  0
 24 23  2  0
A    1
C10
A    2
C11
A    3
N02
A    4
C02
A    5
N01
A    6
C03
A    7
C04
A    8
C05
A    9
C06
A   10
C07
A   11
C08
A   12
C09
A   13
N12
A   14
C13
A   15
C14
A   16
C15
A   17
C23
A   18
C22
A   19
C24
A   20
O27
A   21
C28
A   22
C25
A   23
C26
A   24
N21
M  END
>  <Id>  (32) 
5VV1_9OS_B_803

>  <ChainId>  (32) 
B

>  <AsymId>  (32) 
I

>  <SeqNum>  (32) 
803

>  <Name>  (32) 
7-({[3-(4-methoxypyridin-3-yl)propyl]amino}methyl)quinolin-2-amine

>  <SystematicName>  (32) 
7-[[3-(4-methoxypyridin-3-yl)propylamino]methyl]quinolin-2-amine

>  <Synonyms>  (32) 


>  <Type>  (32) 
NON-POLYMER

>  <Formula>  (32) 
C19 H22 N4 O

>  <ObservedFormula>  (32) 
C19 N4 O

>  <MolecularWeight>  (32) 
322.404

>  <ModifiedDate>  (32) 
2017-08-11

>  <Parent>  (32) 


>  <OneLetterCode>  (32) 


>  <SubcomponentList>  (32) 


>  <AmbiguousFlag>  (32) 
N

>  <InsertionCode>  (32) 


>  <InstanceId>  (32) 
5VV1_9OS_B_803

>  <ChemCompId>  (32) 
9OS

>  <PdbId>  (32) 
5VV1

>  <ResidueNumber>  (32) 
803

>  <InChI>  (32) 
InChI=1S/C19H22N4O/c1-24-18-8-10-22-13-16(18)3-2-9-21-12-14-4-5-15-6-7-19(20)23-17(15)11-14/h4-8,10-11,13,21H,2-3,9,12H2,1H3,(H2,20,23)

>  <InChIKey>  (32) 
IQPCOMIHSUSLGC-UHFFFAOYSA-N

>  <SMILES>  (32) 
COc1ccncc1CCCNCc2ccc3ccc(nc3c2)N

>  <MissingHeavyAtoms>  (32) 
0

>  <Model>  (32) 
1

>  <AltIds>  (32) 


>  <pKI>  (32) 
7.14

>  <ChemblID>  (32) 
-

>  <standardized_canonical_smiles>  (32) 
COc1ccncc1CCCNCc1ccc2ccc(N)nc2c1

$$$$
5VUV_M62_B_803
     RDKit          3D

 20 22  0  0  0  0  0  0  0  0999 V2000
  117.9780  246.2830  325.7050 N   0  0  0  0  0  0  0  0  0  0  0  0
  119.8430  244.9500  325.1770 N   0  0  0  0  0  0  0  0  0  0  0  0
  119.1100  246.0880  324.9880 C   0  0  0  0  0  0  0  0  0  0  0  0
  119.5270  247.0470  324.0660 C   0  0  0  0  0  0  0  0  0  0  0  0
  118.7860  248.2140  323.8960 C   0  0  0  0  0  0  0  0  0  0  0  0
  117.6250  248.3880  324.6570 C   0  0  0  0  0  0  0  0  0  0  0  0
  116.8540  249.5400  324.5210 C   0  0  0  0  0  0  0  0  0  0  0  0
  115.6970  249.7100  325.2870 C   0  0  0  0  0  0  0  0  0  0  0  0
  115.2960  248.7260  326.1950 C   0  0  0  0  0  0  0  0  0  0  0  0
  116.0720  247.5730  326.3280 C   0  0  0  0  0  0  0  0  0  0  0  0
  117.2360  247.4070  325.5660 C   0  0  0  0  0  0  0  0  0  0  0  0
  114.0320  248.9370  327.0140 C   0  0  0  0  0  0  0  0  0  0  0  0
  113.2390  247.7350  327.1720 N   0  0  0  0  0  0  0  0  0  0  0  0
  112.2060  247.4970  326.3110 C   0  0  0  0  0  0  0  0  0  0  0  0
  111.7860  248.4660  325.3960 C   0  0  0  0  0  0  0  0  0  0  0  0
  110.7350  248.2240  324.5040 C   0  0  0  0  0  0  0  0  0  0  0  0
  110.0930  246.9940  324.5230 C   0  0  0  0  0  0  0  0  0  0  0  0
  110.5010  246.0210  325.4380 C   0  0  0  0  0  0  0  0  0  0  0  0
  109.8760  244.8260  325.4680 F   0  0  0  0  0  0  0  0  0  0  0  0
  111.5540  246.2670  326.3220 C   0  0  0  0  0  0  0  0  0  0  0  0
  3  1  2  0
 11  1  1  0
  3  2  1  0
  4  3  1  0
  5  4  2  0
  6  5  1  0
  7  6  1  0
 11  6  2  0
  8  7  2  0
  9  8  1  0
 10  9  2  0
 12  9  1  0
 11 10  1  0
 13 12  1  0
 14 13  1  0
 15 14  2  0
 20 14  1  0
 16 15  1  0
 17 16  2  0
 18 17  1  0
 19 18  1  0
 20 18  2  0
A    1
N01
A    2
N02
A    3
C02
A    4
C03
A    5
C04
A    6
C05
A    7
C06
A    8
C07
A    9
C08
A   10
C09
A   11
C10
A   12
C11
A   13
N12
A   14
C21
A   15
C22
A   16
C23
A   17
C24
A   18
C25
A   19
F27
A   20
C26
M  END
>  <Id>  (33) 
5VUV_M62_B_803

>  <ChainId>  (33) 
B

>  <AsymId>  (33) 
I

>  <SeqNum>  (33) 
803

>  <Name>  (33) 
7-{[(3-fluorophenyl)amino]methyl}quinolin-2-amine

>  <SystematicName>  (33) 
7-[[(3-fluorophenyl)amino]methyl]quinolin-2-amine

>  <Synonyms>  (33) 


>  <Type>  (33) 
NON-POLYMER

>  <Formula>  (33) 
C16 H14 F N3

>  <ObservedFormula>  (33) 
C16 F N3

>  <MolecularWeight>  (33) 
267.301

>  <ModifiedDate>  (33) 
2017-08-11

>  <Parent>  (33) 


>  <OneLetterCode>  (33) 


>  <SubcomponentList>  (33) 


>  <AmbiguousFlag>  (33) 
N

>  <InsertionCode>  (33) 


>  <InstanceId>  (33) 
5VUV_M62_B_803

>  <ChemCompId>  (33) 
M62

>  <PdbId>  (33) 
5VUV

>  <ResidueNumber>  (33) 
803

>  <InChI>  (33) 
InChI=1S/C16H14FN3/c17-13-2-1-3-14(9-13)19-10-11-4-5-12-6-7-16(18)20-15(12)8-11/h1-9,19H,10H2,(H2,18,20)

>  <InChIKey>  (33) 
UVVDQBVYPPCDJF-UHFFFAOYSA-N

>  <SMILES>  (33) 
c1cc(cc(c1)F)NCc2ccc3ccc(nc3c2)N

>  <MissingHeavyAtoms>  (33) 
0

>  <Model>  (33) 
1

>  <AltIds>  (33) 


>  <pKI>  (33) 
6.11

>  <ChemblID>  (33) 
-

>  <standardized_canonical_smiles>  (33) 
Nc1ccc2ccc(CNc3cccc(F)c3)cc2n1

$$$$
5VUZ_XH8_B_803
     RDKit          3D

 22 24  0  0  0  0  0  0  0  0999 V2000
  119.3020  242.4710  323.5020 N   0  0  0  0  0  0  0  0  0  0  0  0
  118.5330  243.5930  323.3960 C   0  0  0  0  0  0  0  0  0  0  0  0
  118.9450  244.7340  322.6990 C   0  0  0  0  0  0  0  0  0  0  0  0
  118.1230  245.8630  322.6330 C   0  0  0  0  0  0  0  0  0  0  0  0
  116.8810  245.8090  323.2630 C   0  0  0  0  0  0  0  0  0  0  0  0
  115.9980  246.8920  323.2500 C   0  0  0  0  0  0  0  0  0  0  0  0
  114.7520  246.7910  323.8910 C   0  0  0  0  0  0  0  0  0  0  0  0
  114.4010  245.6100  324.5440 C   0  0  0  0  0  0  0  0  0  0  0  0
  113.0950  245.3550  325.2630 C   0  0  0  0  0  0  0  0  0  0  0  0
  112.2120  246.4810  325.5700 N   0  0  0  0  0  0  0  0  0  0  0  0
  111.1800  245.8320  326.3940 C   0  0  0  0  0  0  0  0  0  0  0  0
  110.0790  246.7680  326.8650 C   0  0  0  0  0  0  0  0  0  0  0  0
  108.9780  245.9140  327.4820 C   0  0  0  0  0  0  0  0  0  0  0  0
  107.8190  246.7700  327.9260 C   0  0  0  0  0  0  0  0  0  0  0  0
  106.6280  246.1690  328.3150 C   0  0  0  0  0  0  0  0  0  0  0  0
  105.5710  246.9690  328.7240 C   0  0  0  0  0  0  0  0  0  0  0  0
  105.7440  248.3470  328.7300 C   0  0  0  0  0  0  0  0  0  0  0  0
  106.9040  248.9060  328.3520 N   0  0  0  0  0  0  0  0  0  0  0  0
  107.9390  248.1540  327.9530 C   0  0  0  0  0  0  0  0  0  0  0  0
  115.2860  244.5460  324.5500 C   0  0  0  0  0  0  0  0  0  0  0  0
  116.5170  244.6460  323.9260 C   0  0  0  0  0  0  0  0  0  0  0  0
  117.3330  243.5830  323.9860 N   0  0  0  0  0  0  0  0  0  0  0  0
  2  1  1  0
  3  2  2  0
 22  2  1  0
  4  3  1  0
  5  4  2  0
  6  5  1  0
 21  5  1  0
  7  6  2  0
  8  7  1  0
  9  8  1  0
 20  8  2  0
 10  9  1  0
 11 10  1  0
 12 11  1  0
 13 12  1  0
 14 13  1  0
 15 14  2  0
 19 14  1  0
 16 15  1  0
 17 16  2  0
 18 17  1  0
 19 18  2  0
 21 20  1  0
 22 21  2  0
A    1
N01
A    2
C02
A    3
C03
A    4
C04
A    5
C05
A    6
C06
A    7
C07
A    8
C08
A    9
C09
A   10
N10
A   11
C11
A   12
C12
A   13
C13
A   14
C14
A   15
C15
A   16
C16
A   17
C17
A   18
N18
A   19
C19
A   20
C20
A   21
C21
A   22
N22
M  END
>  <Id>  (34) 
5VUZ_XH8_B_803

>  <ChainId>  (34) 
B

>  <AsymId>  (34) 
I

>  <SeqNum>  (34) 
803

>  <Name>  (34) 
7-(((3-(PYRIDIN-3-YL)PROPYL)AMINO)METHYL)QUINOLIN-2-

>  <SystematicName>  (34) 
7-[(3-pyridin-3-ylpropylamino)methyl]quinolin-2-amine

>  <Synonyms>  (34) 


>  <Type>  (34) 
non-polymer

>  <Formula>  (34) 
C18 H20 N4

>  <ObservedFormula>  (34) 
C18 N4

>  <MolecularWeight>  (34) 
292.378

>  <ModifiedDate>  (34) 
2016-09-16

>  <Parent>  (34) 


>  <OneLetterCode>  (34) 


>  <SubcomponentList>  (34) 


>  <AmbiguousFlag>  (34) 
N

>  <InsertionCode>  (34) 


>  <InstanceId>  (34) 
5VUZ_XH8_B_803

>  <ChemCompId>  (34) 
XH8

>  <PdbId>  (34) 
5VUZ

>  <ResidueNumber>  (34) 
803

>  <InChI>  (34) 
InChI=1S/C18H20N4/c19-18-8-7-16-6-5-15(11-17(16)22-18)13-21-10-2-4-14-3-1-9-20-12-14/h1,3,5-9,11-12,21H,2,4,10,13H2,(H2,19,22)

>  <InChIKey>  (34) 
SYLCHGGIDVOGEK-UHFFFAOYSA-N

>  <SMILES>  (34) 
c1cc(cnc1)CCCNCc2ccc3ccc(nc3c2)N

>  <MissingHeavyAtoms>  (34) 
0

>  <Model>  (34) 
1

>  <AltIds>  (34) 


>  <pKI>  (34) 
6.97

>  <ChemblID>  (34) 
-

>  <standardized_canonical_smiles>  (34) 
Nc1ccc2ccc(CNCCCc3cccnc3)cc2n1

$$$$
5VV2_9P4_B_803
     RDKit          3D

 23 25  0  0  0  0  0  0  0  0999 V2000
  105.8280  245.9010  331.0450 F   0  0  0  0  0  0  0  0  0  0  0  0
  106.6410  246.7370  330.3740 C   0  0  0  0  0  0  0  0  0  0  0  0
  106.6780  248.0970  330.6710 C   0  0  0  0  0  0  0  0  0  0  0  0
  107.4940  248.9240  329.9970 N   0  0  0  0  0  0  0  0  0  0  0  0
  108.2940  248.4680  329.0200 C   0  0  0  0  0  0  0  0  0  0  0  0
  107.4540  246.2400  329.3660 C   0  0  0  0  0  0  0  0  0  0  0  0
  108.2910  247.1150  328.6850 C   0  0  0  0  0  0  0  0  0  0  0  0
  109.1780  246.5790  327.5880 C   0  0  0  0  0  0  0  0  0  0  0  0
  110.6070  247.0590  327.7960 C   0  0  0  0  0  0  0  0  0  0  0  0
  111.5460  245.9570  327.3440 C   0  0  0  0  0  0  0  0  0  0  0  0
  112.8420  246.4780  326.8910 N   0  0  0  0  0  0  0  0  0  0  0  0
  113.4150  245.3580  326.1290 C   0  0  0  0  0  0  0  0  0  0  0  0
  114.7700  245.6170  325.5090 C   0  0  0  0  0  0  0  0  0  0  0  0
  115.1230  246.8390  324.9330 C   0  0  0  0  0  0  0  0  0  0  0  0
  116.3860  247.0110  324.3540 C   0  0  0  0  0  0  0  0  0  0  0  0
  115.6770  244.5680  325.5070 C   0  0  0  0  0  0  0  0  0  0  0  0
  116.9330  244.7400  324.9460 C   0  0  0  0  0  0  0  0  0  0  0  0
  117.7820  243.7030  324.9890 N   0  0  0  0  0  0  0  0  0  0  0  0
  117.2910  245.9510  324.3550 C   0  0  0  0  0  0  0  0  0  0  0  0
  118.5490  246.0930  323.7770 C   0  0  0  0  0  0  0  0  0  0  0  0
  119.4080  244.9900  323.8230 C   0  0  0  0  0  0  0  0  0  0  0  0
  119.0110  243.7980  324.4480 C   0  0  0  0  0  0  0  0  0  0  0  0
  119.8340  242.7100  324.5270 N   0  0  0  0  0  0  0  0  0  0  0  0
  2  1  1  0
  3  2  2  0
  6  2  1  0
  4  3  1  0
  5  4  2  0
  7  5  1  0
  7  6  2  0
  8  7  1  0
  9  8  1  0
 10  9  1  0
 11 10  1  0
 12 11  1  0
 13 12  1  0
 14 13  2  0
 16 13  1  0
 15 14  1  0
 19 15  2  0
 17 16  2  0
 18 17  1  0
 19 17  1  0
 22 18  2  0
 20 19  1  0
 21 20  2  0
 22 21  1  0
 23 22  1  0
A    1
F23
A    2
C23
A    3
C22
A    4
N21
A    5
C26
A    6
C24
A    7
C25
A    8
C15
A    9
C14
A   10
C13
A   11
N12
A   12
C11
A   13
C08
A   14
C07
A   15
C06
A   16
C09
A   17
C10
A   18
N01
A   19
C05
A   20
C04
A   21
C03
A   22
C02
A   23
N02
M  END
>  <Id>  (35) 
5VV2_9P4_B_803

>  <ChainId>  (35) 
B

>  <AsymId>  (35) 
I

>  <SeqNum>  (35) 
803

>  <Name>  (35) 
7-({[3-(5-fluoropyridin-3-yl)propyl]amino}methyl)quinolin-2-amine

>  <SystematicName>  (35) 
7-[[3-(5-fluoranylpyridin-3-yl)propylamino]methyl]quinolin-2-amine

>  <Synonyms>  (35) 


>  <Type>  (35) 
NON-POLYMER

>  <Formula>  (35) 
C18 H19 F N4

>  <ObservedFormula>  (35) 
C18 F N4

>  <MolecularWeight>  (35) 
310.369

>  <ModifiedDate>  (35) 
2017-08-11

>  <Parent>  (35) 


>  <OneLetterCode>  (35) 


>  <SubcomponentList>  (35) 


>  <AmbiguousFlag>  (35) 
N

>  <InsertionCode>  (35) 


>  <InstanceId>  (35) 
5VV2_9P4_B_803

>  <ChemCompId>  (35) 
9P4

>  <PdbId>  (35) 
5VV2

>  <ResidueNumber>  (35) 
803

>  <InChI>  (35) 
InChI=1S/C18H19FN4/c19-16-8-13(11-22-12-16)2-1-7-21-10-14-3-4-15-5-6-18(20)23-17(15)9-14/h3-6,8-9,11-12,21H,1-2,7,10H2,(H2,20,23)

>  <InChIKey>  (35) 
GIUCGMWNASMMOJ-UHFFFAOYSA-N

>  <SMILES>  (35) 
c1cc(cc2c1ccc(n2)N)CNCCCc3cc(cnc3)F

>  <MissingHeavyAtoms>  (35) 
0

>  <Model>  (35) 
1

>  <AltIds>  (35) 


>  <pKI>  (35) 
6.79

>  <ChemblID>  (35) 
-

>  <standardized_canonical_smiles>  (35) 
Nc1ccc2ccc(CNCCCc3cncc(F)c3)cc2n1

$$$$
5VV3_P94_B_803
     RDKit          3D

 23 25  0  0  0  0  0  0  0  0999 V2000
  104.8040  248.1280  331.2290 N   0  0  0  0  0  0  0  0  0  0  0  0
  105.8730  248.4320  330.9050 C   0  0  0  0  0  0  0  0  0  0  0  0
  109.5880  249.5080  329.6730 C   0  0  0  0  0  0  0  0  0  0  0  0
  108.5050  250.3500  329.4290 C   0  0  0  0  0  0  0  0  0  0  0  0
  107.2350  249.9780  329.8570 C   0  0  0  0  0  0  0  0  0  0  0  0
  107.0530  248.7680  330.5230 C   0  0  0  0  0  0  0  0  0  0  0  0
  108.1390  247.9280  330.7630 C   0  0  0  0  0  0  0  0  0  0  0  0
  109.4090  248.2990  330.3370 C   0  0  0  0  0  0  0  0  0  0  0  0
  110.9680  249.9040  329.2040 C   0  0  0  0  0  0  0  0  0  0  0  0
  111.4300  248.9730  328.0900 C   0  0  0  0  0  0  0  0  0  0  0  0
  112.6720  249.4530  327.4620 N   0  0  0  0  0  0  0  0  0  0  0  0
  113.3870  248.2410  327.0600 C   0  0  0  0  0  0  0  0  0  0  0  0
  116.8530  247.5480  325.7750 C   0  0  0  0  0  0  0  0  0  0  0  0
  115.6170  247.4190  326.3910 C   0  0  0  0  0  0  0  0  0  0  0  0
  114.7100  248.4670  326.3660 C   0  0  0  0  0  0  0  0  0  0  0  0
  115.0470  249.6570  325.7190 C   0  0  0  0  0  0  0  0  0  0  0  0
  116.2900  249.7840  325.0780 C   0  0  0  0  0  0  0  0  0  0  0  0
  117.1970  248.7220  325.1090 C   0  0  0  0  0  0  0  0  0  0  0  0
  118.4310  248.8160  324.4850 C   0  0  0  0  0  0  0  0  0  0  0  0
  119.2810  247.7170  324.5510 C   0  0  0  0  0  0  0  0  0  0  0  0
  118.8950  246.5650  325.2440 C   0  0  0  0  0  0  0  0  0  0  0  0
  119.7100  245.4810  325.3380 N   0  0  0  0  0  0  0  0  0  0  0  0
  117.6910  246.5020  325.8300 N   0  0  0  0  0  0  0  0  0  0  0  0
  2  1  3  0
  6  2  1  0
  4  3  2  0
  8  3  1  0
  9  3  1  0
  5  4  1  0
  6  5  2  0
  7  6  1  0
  8  7  2  0
 10  9  1  0
 11 10  1  0
 12 11  1  0
 15 12  1  0
 14 13  2  0
 18 13  1  0
 23 13  1  0
 15 14  1  0
 16 15  2  0
 17 16  1  0
 18 17  2  0
 19 18  1  0
 20 19  2  0
 21 20  1  0
 22 21  1  0
 23 21  2  0
A    1
N28
A    2
C27
A    3
C21
A    4
C22
A    5
C23
A    6
C24
A    7
C25
A    8
C26
A    9
C14
A   10
C13
A   11
N12
A   12
C11
A   13
C10
A   14
C09
A   15
C08
A   16
C07
A   17
C06
A   18
C05
A   19
C04
A   20
C03
A   21
C02
A   22
N02
A   23
N01
M  END
>  <Id>  (36) 
5VV3_P94_B_803

>  <ChainId>  (36) 
B

>  <AsymId>  (36) 
J

>  <SeqNum>  (36) 
803

>  <Name>  (36) 
4-(2-{[(2-aminoquinolin-7-yl)methyl]amino}ethyl)benzonitrile

>  <SystematicName>  (36) 
4-[2-[(2-azanylquinolin-7-yl)methylamino]ethyl]benzenecarbonitrile

>  <Synonyms>  (36) 


>  <Type>  (36) 
NON-POLYMER

>  <Formula>  (36) 
C19 H18 N4

>  <ObservedFormula>  (36) 
C19 N4

>  <MolecularWeight>  (36) 
302.373

>  <ModifiedDate>  (36) 
2017-08-11

>  <Parent>  (36) 


>  <OneLetterCode>  (36) 


>  <SubcomponentList>  (36) 


>  <AmbiguousFlag>  (36) 
N

>  <InsertionCode>  (36) 


>  <InstanceId>  (36) 
5VV3_P94_B_803

>  <ChemCompId>  (36) 
P94

>  <PdbId>  (36) 
5VV3

>  <ResidueNumber>  (36) 
803

>  <InChI>  (36) 
InChI=1S/C19H18N4/c20-12-15-3-1-14(2-4-15)9-10-22-13-16-5-6-17-7-8-19(21)23-18(17)11-16/h1-8,11,22H,9-10,13H2,(H2,21,23)

>  <InChIKey>  (36) 
CDHZAJGZCBJOTB-UHFFFAOYSA-N

>  <SMILES>  (36) 
c1cc(ccc1CCNCc2ccc3ccc(nc3c2)N)C#N

>  <MissingHeavyAtoms>  (36) 
0

>  <Model>  (36) 
1

>  <AltIds>  (36) 


>  <pKI>  (36) 
7.49

>  <ChemblID>  (36) 
-

>  <standardized_canonical_smiles>  (36) 
N#Cc1ccc(CCNCc2ccc3ccc(N)nc3c2)cc1

$$$$
