5T3Q_75H_A_1401
     RDKit          3D

 41 45  0  0  0  0  0  0  0  0999 V2000
   20.6020   -6.9290   27.4160 C   0  0  0  0  0  0  0  0  0  0  0  0
   19.7180   -6.7210   26.2740 O   0  0  0  0  0  0  0  0  0  0  0  0
   20.3050   -6.3360   25.1090 C   0  0  0  0  0  0  0  0  0  0  0  0
   21.6490   -5.9600   25.0650 C   0  0  0  0  0  0  0  0  0  0  0  0
   19.5270   -6.2880   23.9480 C   0  0  0  0  0  0  0  0  0  0  0  0
   20.1210   -5.8940   22.7450 C   0  0  0  0  0  0  0  0  0  0  0  0
   21.4800   -5.5410   22.7020 C   0  0  0  0  0  0  0  0  0  0  0  0
   22.2440   -5.5730   23.8670 C   0  0  0  0  0  0  0  0  0  0  0  0
   23.5580   -5.2160   23.8360 N   0  0  0  0  0  0  0  0  0  0  0  0
   24.1550   -4.8160   22.7160 C   0  0  0  0  0  0  0  0  0  0  0  0
   23.4430   -4.7540   21.5150 C   0  0  0  0  0  0  0  0  0  0  0  0
   22.0780   -5.1220   21.5050 C   0  0  0  0  0  0  0  0  0  0  0  0
   21.2900   -5.0990   20.3790 O   0  0  0  0  0  0  0  0  0  0  0  0
   21.6930   -4.4790   19.2450 C   0  0  0  0  0  0  0  0  0  0  0  0
   22.0660   -5.2630   18.1630 C   0  0  0  0  0  0  0  0  0  0  0  0
   22.4620   -4.6740   16.9710 C   0  0  0  0  0  0  0  0  0  0  0  0
   22.0410   -6.6090   18.2600 F   0  0  0  0  0  0  0  0  0  0  0  0
   21.7060   -3.0850   19.1350 C   0  0  0  0  0  0  0  0  0  0  0  0
   22.1300   -2.4950   17.9370 C   0  0  0  0  0  0  0  0  0  0  0  0
   22.5020   -3.2850   16.8410 C   0  0  0  0  0  0  0  0  0  0  0  0
   22.9280   -2.8180   15.6480 N   0  0  0  0  0  0  0  0  0  0  0  0
   23.0760   -1.5220   15.2830 C   0  0  0  0  0  0  0  0  0  0  0  0
   22.8770   -0.5360   16.0000 O   0  0  0  0  0  0  0  0  0  0  0  0
   23.6870   -1.3410   13.9000 C   0  0  0  0  0  0  0  0  0  0  0  0
   24.0900   -2.3450   13.0340 C   0  0  0  0  0  0  0  0  0  0  0  0
   23.9680   -3.5710   13.2210 O   0  0  0  0  0  0  0  0  0  0  0  0
   24.0310   -0.1540   13.2660 C   0  0  0  0  0  0  0  0  0  0  0  0
   23.8020    1.2630   13.8290 C   0  0  0  0  0  0  0  0  0  0  0  0
   24.5640   -0.4820   12.0780 N   0  0  0  0  0  0  0  0  0  0  0  0
   25.0520    0.5120   11.0860 C   0  0  0  0  0  0  0  0  0  0  0  0
   23.9380    1.1140   10.1730 C   0  0  0  0  0  0  0  0  0  0  0  0
   24.5610    1.9830    9.0870 C   0  0  0  0  0  0  0  0  0  0  0  0
   22.9370    1.9690   10.9510 C   0  0  0  0  0  0  0  0  0  0  0  0
   23.2540    0.0480    9.5300 O   0  0  0  0  0  0  0  0  0  0  0  0
   24.5640   -1.7280   11.9360 N   0  0  0  0  0  0  0  0  0  0  0  0
   25.1470   -2.4200   10.9690 C   0  0  0  0  0  0  0  0  0  0  0  0
   26.5460   -2.3960   11.0730 C   0  0  0  0  0  0  0  0  0  0  0  0
   27.3490   -3.0860   10.1710 C   0  0  0  0  0  0  0  0  0  0  0  0
   26.7450   -3.8450    9.1770 C   0  0  0  0  0  0  0  0  0  0  0  0
   25.3560   -3.8960    9.0930 C   0  0  0  0  0  0  0  0  0  0  0  0
   24.5430   -3.2000    9.9890 C   0  0  0  0  0  0  0  0  0  0  0  0
  2  1  1  0
  3  2  1  0
  4  3  2  0
  5  3  1  0
  8  4  1  0
  6  5  2  0
  7  6  1  0
  8  7  2  0
 12  7  1  0
  9  8  1  0
 10  9  2  0
 11 10  1  0
 12 11  2  0
 13 12  1  0
 14 13  1  0
 15 14  2  0
 18 14  1  0
 16 15  1  0
 17 15  1  0
 20 16  2  0
 19 18  2  0
 20 19  1  0
 21 20  1  0
 22 21  1  0
 23 22  2  0
 24 22  1  0
 25 24  1  0
 27 24  2  0
 26 25  2  0
 35 25  1  0
 28 27  1  0
 29 27  1  0
 30 29  1  0
 35 29  1  0
 31 30  1  0
 32 31  1  0
 33 31  1  0
 34 31  1  0
 36 35  1  0
 37 36  2  0
 41 36  1  0
 38 37  1  0
 39 38  2  0
 40 39  1  0
 41 40  2  0
A    1
C16
A    2
O2
A    3
C2
A    4
C3
A    5
C1
A    6
C6
A    7
C5
A    8
C4
A    9
N1
A   10
C7
A   11
C8
A   12
C9
A   13
O1
A   14
C10
A   15
C11
A   16
C12
A   17
F1
A   18
C15
A   19
C14
A   20
C13
A   21
N2
A   22
C22
A   23
O5
A   24
C17
A   25
C19
A   26
O3
A   27
C18
A   28
C21
A   29
N3
A   30
C28
A   31
C29
A   32
C30
A   33
C31
A   34
O4
A   35
N4
A   36
C20
A   37
C23
A   38
C24
A   39
C25
A   40
C26
A   41
C27
M  END
>  <Id>  (1) 
5T3Q_75H_A_1401

>  <ChainId>  (1) 
A

>  <AsymId>  (1) 
B

>  <SeqNum>  (1) 
1401

>  <Name>  (1) 
N-{3-fluoro-4-[(7-methoxyquinolin-4-yl)oxy]phenyl}-1-(2-hydroxy-2-methylpropyl)-5-methyl-3-oxo-2-phenyl-2,3-dihydro-1H-pyrazole-4-carboxamide

>  <SystematicName>  (1) 
~{N}-[3-fluoranyl-4-(7-methoxyquinolin-4-yl)oxy-phenyl]-5-methyl-1-(2-methyl-2-oxidanyl-propyl)-3-oxidanylidene-2-phenyl-pyrazole-4-carboxamide

>  <Synonyms>  (1) 


>  <Type>  (1) 
NON-POLYMER

>  <Formula>  (1) 
C31 H29 F N4 O5

>  <ObservedFormula>  (1) 
C31 F N4 O5

>  <MolecularWeight>  (1) 
556.584

>  <ModifiedDate>  (1) 
2016-09-16

>  <Parent>  (1) 


>  <OneLetterCode>  (1) 


>  <SubcomponentList>  (1) 


>  <AmbiguousFlag>  (1) 
N

>  <InsertionCode>  (1) 


>  <InstanceId>  (1) 
5T3Q_75H_A_1401

>  <ChemCompId>  (1) 
75H

>  <PdbId>  (1) 
5T3Q

>  <ResidueNumber>  (1) 
1401

>  <InChI>  (1) 
InChI=1S/C31H29FN4O5/c1-19-28(30(38)36(21-8-6-5-7-9-21)35(19)18-31(2,3)39)29(37)34-20-10-13-27(24(32)16-20)41-26-14-15-33-25-17-22(40-4)11-12-23(25)26/h5-17,39H,18H2,1-4H3,(H,34,37)

>  <InChIKey>  (1) 
UYMSIPINLJNNOU-UHFFFAOYSA-N

>  <SMILES>  (1) 
CC1=C(C(=O)N(N1CC(C)(C)O)c2ccccc2)C(=O)Nc3ccc(c(c3)F)Oc4ccnc5c4ccc(c5)OC

>  <MissingHeavyAtoms>  (1) 
0

>  <Model>  (1) 
1

>  <AltIds>  (1) 


>  <pKI>  (1) 
8.57

>  <ChemblID>  (1) 
CHEMBL445799

>  <standardized_canonical_smiles>  (1) 
COc1ccc2c(Oc3ccc(NC(=O)c4c(C)n(CC(C)(C)O)n(-c5ccccc5)c4=O)cc3F)ccnc2c1

$$$$
3U6I_044_A_1
     RDKit          3D

 40 44  0  0  0  0  0  0  0  0999 V2000
   20.3980   -6.2900   24.8500 C   0  0  0  0  0  0  0  0  0  0  0  0
   23.5170   -4.8210   21.2380 C   0  0  0  0  0  0  0  0  0  0  0  0
   24.2370   -4.8530   22.4350 C   0  0  0  0  0  0  0  0  0  0  0  0
   23.6500   -5.2180   23.5710 N   0  0  0  0  0  0  0  0  0  0  0  0
   22.3430   -5.5570   23.6080 C   0  0  0  0  0  0  0  0  0  0  0  0
   21.5740   -5.5500   22.4360 C   0  0  0  0  0  0  0  0  0  0  0  0
   22.1620   -5.1740   21.2330 C   0  0  0  0  0  0  0  0  0  0  0  0
   21.7520   -5.9300   24.8120 C   0  0  0  0  0  0  0  0  0  0  0  0
   19.6360   -6.2660   23.6840 C   0  0  0  0  0  0  0  0  0  0  0  0
   20.2220   -5.9000   22.4750 C   0  0  0  0  0  0  0  0  0  0  0  0
   21.3800   -5.1630   20.1030 O   0  0  0  0  0  0  0  0  0  0  0  0
   21.8370   -4.5110   18.9920 C   0  0  0  0  0  0  0  0  0  0  0  0
   21.8220   -3.1160   18.8650 C   0  0  0  0  0  0  0  0  0  0  0  0
   22.3050   -5.2870   17.9440 C   0  0  0  0  0  0  0  0  0  0  0  0
   22.7790   -4.6960   16.7760 C   0  0  0  0  0  0  0  0  0  0  0  0
   22.7730   -3.3070   16.6280 C   0  0  0  0  0  0  0  0  0  0  0  0
   22.2990   -2.5250   17.6860 C   0  0  0  0  0  0  0  0  0  0  0  0
   23.2770   -2.8070   15.4800 N   0  0  0  0  0  0  0  0  0  0  0  0
   24.5030   -2.3620   12.8740 C   0  0  0  0  0  0  0  0  0  0  0  0
   24.0470   -1.3510   13.7050 C   0  0  0  0  0  0  0  0  0  0  0  0
   23.3260   -1.5340   15.0590 C   0  0  0  0  0  0  0  0  0  0  0  0
   22.9040   -0.5690   15.6970 O   0  0  0  0  0  0  0  0  0  0  0  0
   25.0570   -0.5370   11.9200 N   0  0  0  0  0  0  0  0  0  0  0  0
   24.4490   -0.1830   13.0670 C   0  0  0  0  0  0  0  0  0  0  0  0
   25.0850   -1.7820   11.8190 N   0  0  0  0  0  0  0  0  0  0  0  0
   24.3570   -3.5710   13.0650 O   0  0  0  0  0  0  0  0  0  0  0  0
   25.6800   -2.4600   10.8340 C   0  0  0  0  0  0  0  0  0  0  0  0
   27.0680   -2.6220   10.9390 C   0  0  0  0  0  0  0  0  0  0  0  0
   24.9990   -3.0030    9.7440 C   0  0  0  0  0  0  0  0  0  0  0  0
   25.7200   -3.6950    8.7680 C   0  0  0  0  0  0  0  0  0  0  0  0
   27.7860   -3.3130    9.9640 C   0  0  0  0  0  0  0  0  0  0  0  0
   27.1020   -3.8510    8.8740 C   0  0  0  0  0  0  0  0  0  0  0  0
   22.3070   -6.6240   18.0920 F   0  0  0  0  0  0  0  0  0  0  0  0
   24.2090    1.2560   13.5580 C   0  0  0  0  0  0  0  0  0  0  0  0
   25.6720    0.4140   10.9450 C   0  0  0  0  0  0  0  0  0  0  0  0
   24.7660    1.0690    9.9010 C   0  0  0  0  0  0  0  0  0  0  0  0
   25.5780    2.0810    9.0770 C   0  0  0  0  0  0  0  0  0  0  0  0
   24.2000    0.0810    9.0490 O   0  0  0  0  0  0  0  0  0  0  0  0
   19.7840   -6.6550   26.0110 O   0  0  0  0  0  0  0  0  0  0  0  0
   20.6820   -7.0740   27.0560 C   0  0  0  0  0  0  0  0  0  0  0  0
  8  1  2  0
  9  1  1  0
 39  1  1  0
  3  2  2  0
  7  2  1  0
  4  3  1  0
  5  4  2  0
  6  5  1  0
  8  5  1  0
  7  6  2  0
 10  6  1  0
 11  7  1  0
 10  9  2  0
 12 11  1  0
 13 12  2  0
 14 12  1  0
 17 13  1  0
 15 14  2  0
 33 14  1  0
 16 15  1  0
 17 16  2  0
 18 16  1  0
 21 18  1  0
 20 19  1  0
 25 19  1  0
 26 19  2  0
 21 20  1  0
 24 20  2  0
 22 21  2  0
 24 23  1  0
 25 23  1  0
 35 23  1  0
 34 24  1  0
 27 25  1  0
 28 27  2  0
 29 27  1  0
 31 28  1  0
 30 29  2  0
 32 30  1  0
 32 31  2  0
 36 35  1  0
 37 36  1  0
 38 36  1  0
 40 39  1  0
A    1
CAA
A    2
CAB
A    3
CAC
A    4
NAD
A    5
CAE
A    6
CAF
A    7
CAG
A    8
CAH
A    9
CAI
A   10
CAJ
A   11
OAK
A   12
CAL
A   13
CAM
A   14
CAN
A   15
CAO
A   16
CAP
A   17
CAQ
A   18
NAR
A   19
CAS
A   20
CAT
A   21
CAU
A   22
OAV
A   23
NAW
A   24
CAX
A   25
NAY
A   26
OAZ
A   27
CBA
A   28
CBB
A   29
CBC
A   30
CBD
A   31
CBE
A   32
CBF
A   33
FBG
A   34
CBH
A   35
CBI
A   36
CBJ
A   37
CBK
A   38
OBL
A   39
OBM
A   40
CBN
M  END
>  <Id>  (2) 
3U6I_044_A_1

>  <ChainId>  (2) 
A

>  <AsymId>  (2) 
B

>  <SeqNum>  (2) 
1

>  <Name>  (2) 
N-{3-fluoro-4-[(7-methoxyquinolin-4-yl)oxy]phenyl}-1-[(2R)-2-hydroxypropyl]-5-methyl-3-oxo-2-phenyl-2,3-dihydro-1H-pyrazole-4-carboxamide

>  <SystematicName>  (2) 
N-[3-fluoranyl-4-(7-methoxyquinolin-4-yl)oxy-phenyl]-5-methyl-3-oxidanylidene-1-[(2R)-2-oxidanylpropyl]-2-phenyl-pyrazole-4-carboxamide

>  <Synonyms>  (2) 


>  <Type>  (2) 
NON-POLYMER

>  <Formula>  (2) 
C30 H27 F N4 O5

>  <ObservedFormula>  (2) 
C30 F N4 O5

>  <MolecularWeight>  (2) 
542.558

>  <ModifiedDate>  (2) 
2012-02-17

>  <Parent>  (2) 


>  <OneLetterCode>  (2) 


>  <SubcomponentList>  (2) 


>  <AmbiguousFlag>  (2) 
N

>  <InsertionCode>  (2) 


>  <InstanceId>  (2) 
3U6I_044_A_1

>  <ChemCompId>  (2) 
044

>  <PdbId>  (2) 
3U6I

>  <ResidueNumber>  (2) 
1

>  <InChI>  (2) 
InChI=1S/C30H27FN4O5/c1-18(36)17-34-19(2)28(30(38)35(34)21-7-5-4-6-8-21)29(37)33-20-9-12-27(24(31)15-20)40-26-13-14-32-25-16-22(39-3)10-11-23(25)26/h4-16,18,36H,17H2,1-3H3,(H,33,37)/t18-/m1/s1

>  <InChIKey>  (2) 
OHLUERTUZNIQEE-GOSISDBHSA-N

>  <SMILES>  (2) 
CC1=C(C(=O)N(N1C[C@@H](C)O)c2ccccc2)C(=O)Nc3ccc(c(c3)F)Oc4ccnc5c4ccc(c5)OC

>  <MissingHeavyAtoms>  (2) 
0

>  <Model>  (2) 
1

>  <AltIds>  (2) 


>  <pKI>  (2) 
9.0

>  <ChemblID>  (2) 
CHEMBL518174

>  <standardized_canonical_smiles>  (2) 
COc1ccc2c(Oc3ccc(NC(=O)c4c(C)n(C[C@@H](C)O)n(-c5ccccc5)c4=O)cc3F)ccnc2c1

$$$$
3VW8_DF6_A_1401
     RDKit          3D

 34 37  0  0  0  0  0  0  0  0999 V2000
   10.0220  -22.8250  -30.5340 C   0  0  0  0  0  0  0  0  0  0  0  0
   10.3580  -21.4700  -30.5160 C   0  0  0  0  0  0  0  0  0  0  0  0
   12.0250  -19.8520  -30.2990 C   0  0  0  0  0  0  0  0  0  0  0  0
   11.0860  -18.8400  -30.4500 C   0  0  0  0  0  0  0  0  0  0  0  0
    9.3940  -15.3560  -28.4810 C   0  0  0  0  0  0  0  0  0  0  0  0
   10.7250   -9.8040  -26.1770 C   0  0  0  0  0  0  0  0  0  0  0  0
   10.7060  -10.0530  -24.6840 C   0  0  0  0  0  0  0  0  0  0  0  0
    9.5690   -9.9320  -22.5590 C   0  0  0  0  0  0  0  0  0  0  0  0
   11.8090  -10.8020  -22.6820 C   0  0  0  0  0  0  0  0  0  0  0  0
    9.7270  -14.5180  -30.6980 C   0  0  0  0  0  0  0  0  0  0  0  0
   10.1590  -12.1010  -26.4250 O   0  0  0  0  0  0  0  0  0  0  0  0
   10.4430  -11.0480  -26.9880 C   0  0  0  0  0  0  0  0  0  0  0  0
   11.8200  -10.5910  -24.0520 C   0  0  0  0  0  0  0  0  0  0  0  0
   10.6860  -10.4720  -21.9370 C   0  0  0  0  0  0  0  0  0  0  0  0
    9.5790   -9.7160  -23.9360 C   0  0  0  0  0  0  0  0  0  0  0  0
   10.5540  -10.9040  -28.3160 N   0  0  0  0  0  0  0  0  0  0  0  0
   10.3250  -11.9160  -29.1600 C   0  0  0  0  0  0  0  0  0  0  0  0
   10.5070  -11.6270  -30.8130 S   0  0  0  0  0  0  0  0  0  0  0  0
    9.9810  -13.1170  -28.6660 N   0  0  0  0  0  0  0  0  0  0  0  0
    9.7110  -14.2920  -29.3150 C   0  0  0  0  0  0  0  0  0  0  0  0
    9.0950  -16.6030  -28.9890 C   0  0  0  0  0  0  0  0  0  0  0  0
    9.4240  -15.7900  -31.2100 C   0  0  0  0  0  0  0  0  0  0  0  0
    9.1090  -16.8370  -30.3520 C   0  0  0  0  0  0  0  0  0  0  0  0
    8.8190  -18.1100  -30.8000 O   0  0  0  0  0  0  0  0  0  0  0  0
    9.7410  -19.1330  -30.6420 C   0  0  0  0  0  0  0  0  0  0  0  0
   11.6520  -21.1390  -30.3340 N   0  0  0  0  0  0  0  0  0  0  0  0
    9.3730  -20.4870  -30.6760 C   0  0  0  0  0  0  0  0  0  0  0  0
    8.0480  -20.8860  -30.8540 C   0  0  0  0  0  0  0  0  0  0  0  0
    7.7200  -22.2520  -30.8600 C   0  0  0  0  0  0  0  0  0  0  0  0
    6.4400  -22.7070  -31.0420 O   0  0  0  0  0  0  0  0  0  0  0  0
    5.2620  -21.9140  -30.9290 C   0  0  0  0  0  0  0  0  0  0  0  0
    8.6980  -23.2170  -30.7050 C   0  0  0  0  0  0  0  0  0  0  0  0
    8.3200  -24.5530  -30.7340 O   0  0  0  0  0  0  0  0  0  0  0  0
    9.2520  -25.6230  -30.5530 C   0  0  0  0  0  0  0  0  0  0  0  0
  2  1  2  0
 32  1  1  0
 26  2  1  0
 27  2  1  0
  4  3  1  0
 26  3  2  0
 25  4  2  0
 20  5  2  0
 21  5  1  0
  7  6  1  0
 12  6  1  0
 13  7  1  0
 15  7  2  0
 14  8  2  0
 15  8  1  0
 13  9  2  0
 14  9  1  0
 20 10  1  0
 22 10  2  0
 12 11  2  0
 16 12  1  0
 17 16  1  0
 18 17  2  0
 19 17  1  0
 20 19  1  0
 23 21  2  0
 23 22  1  0
 24 23  1  0
 25 24  1  0
 27 25  1  0
 28 27  2  0
 29 28  1  0
 30 29  1  0
 32 29  2  0
 31 30  1  0
 33 32  1  0
 34 33  1  0
A    1
C4
A    2
C5
A    3
C7
A    4
C8
A    5
C13
A    6
C21
A    7
C22
A    8
C24
A    9
C26
A   10
C28
A   11
O20
A   12
C19
A   13
C27
A   14
C25
A   15
C23
A   16
N18
A   17
C16
A   18
S17
A   19
N15
A   20
C14
A   21
C12
A   22
C29
A   23
C11
A   24
O10
A   25
C9
A   26
N6
A   27
C30
A   28
C31
A   29
C32
A   30
O33
A   31
C34
A   32
C3
A   33
O2
A   34
C1
M  END
>  <Id>  (3) 
3VW8_DF6_A_1401

>  <ChainId>  (3) 
A

>  <AsymId>  (3) 
B

>  <SeqNum>  (3) 
1401

>  <Name>  (3) 
N-({4-[(6,7-dimethoxyquinolin-4-yl)oxy]phenyl}carbamothioyl)-2-phenylacetamide

>  <SystematicName>  (3) 
N-[[4-(6,7-dimethoxyquinolin-4-yl)oxyphenyl]carbamothioyl]-2-phenyl-ethanamide

>  <Synonyms>  (3) 


>  <Type>  (3) 
NON-POLYMER

>  <Formula>  (3) 
C26 H23 N3 O4 S

>  <ObservedFormula>  (3) 
C26 S N3 O4

>  <MolecularWeight>  (3) 
473.544

>  <ModifiedDate>  (3) 
2013-08-09

>  <Parent>  (3) 


>  <OneLetterCode>  (3) 


>  <SubcomponentList>  (3) 


>  <AmbiguousFlag>  (3) 
N

>  <InsertionCode>  (3) 


>  <InstanceId>  (3) 
3VW8_DF6_A_1401

>  <ChemCompId>  (3) 
DF6

>  <PdbId>  (3) 
3VW8

>  <ResidueNumber>  (3) 
1401

>  <InChI>  (3) 
InChI=1S/C26H23N3O4S/c1-31-23-15-20-21(16-24(23)32-2)27-13-12-22(20)33-19-10-8-18(9-11-19)28-26(34)29-25(30)14-17-6-4-3-5-7-17/h3-13,15-16H,14H2,1-2H3,(H2,28,29,30,34)

>  <InChIKey>  (3) 
BRXZUOJFGVQTAB-UHFFFAOYSA-N

>  <SMILES>  (3) 
COc1cc2c(ccnc2cc1OC)Oc3ccc(cc3)NC(=S)NC(=O)Cc4ccccc4

>  <MissingHeavyAtoms>  (3) 
0

>  <Model>  (3) 
1

>  <AltIds>  (3) 


>  <pKI>  (3) 
8.7

>  <ChemblID>  (3) 
CHEMBL205372

>  <standardized_canonical_smiles>  (3) 
COc1cc2nccc(Oc3ccc(NC(=S)NC(=O)Cc4ccccc4)cc3)c2cc1OC

$$$$
3EFJ_MT3_B_2
     RDKit          3D

 37 41  0  0  0  0  0  0  0  0999 V2000
   61.1600   24.2480   85.1340 N   0  0  0  0  0  0  0  0  0  0  0  0
   61.2900   26.9030   74.5060 N   0  0  0  0  0  0  0  0  0  0  0  0
   65.6660   24.0850   88.4370 C   0  0  0  0  0  0  0  0  0  0  0  0
   64.5100   23.6290   89.0800 C   0  0  0  0  0  0  0  0  0  0  0  0
   63.4800   23.0550   88.3360 C   0  0  0  0  0  0  0  0  0  0  0  0
   61.0170   24.4040   82.7100 C   0  0  0  0  0  0  0  0  0  0  0  0
   60.6890   24.9050   83.9790 C   0  0  0  0  0  0  0  0  0  0  0  0
   61.7900   23.2470   82.6510 C   0  0  0  0  0  0  0  0  0  0  0  0
   60.3910   26.3530   81.3410 C   0  0  0  0  0  0  0  0  0  0  0  0
   60.1690   24.1360   80.4640 C   0  0  0  0  0  0  0  0  0  0  0  0
   59.2340   27.1580   75.6450 C   0  0  0  0  0  0  0  0  0  0  0  0
   58.0740   28.1410   73.2930 C   0  0  0  0  0  0  0  0  0  0  0  0
   59.4210   27.7610   73.3140 C   0  0  0  0  0  0  0  0  0  0  0  0
   59.9980   27.2690   74.4890 C   0  0  0  0  0  0  0  0  0  0  0  0
   61.1550   26.2980   76.7770 C   0  0  0  0  0  0  0  0  0  0  0  0
   55.1150   27.8160   75.3590 C   0  0  0  0  0  0  0  0  0  0  0  0
   62.4860   22.2930   86.1700 C   0  0  0  0  0  0  0  0  0  0  0  0
   58.2890   29.0120   71.0730 C   0  0  0  0  0  0  0  0  0  0  0  0
   57.4550   28.6370   72.1730 O   0  0  0  0  0  0  0  0  0  0  0  0
   57.3030   28.0170   74.4460 C   0  0  0  0  0  0  0  0  0  0  0  0
   55.9870   28.4030   74.3890 O   0  0  0  0  0  0  0  0  0  0  0  0
   57.8880   27.5340   75.6200 C   0  0  0  0  0  0  0  0  0  0  0  0
   61.8700   26.4320   75.5960 C   0  0  0  0  0  0  0  0  0  0  0  0
   59.8180   26.6600   76.8090 C   0  0  0  0  0  0  0  0  0  0  0  0
   59.0510   26.5410   77.9380 O   0  0  0  0  0  0  0  0  0  0  0  0
   59.5480   25.9970   79.0900 C   0  0  0  0  0  0  0  0  0  0  0  0
   59.8960   26.8470   80.1330 C   0  0  0  0  0  0  0  0  0  0  0  0
   59.7590   28.1730   79.9630 F   0  0  0  0  0  0  0  0  0  0  0  0
   59.6730   24.6230   79.2570 C   0  0  0  0  0  0  0  0  0  0  0  0
   60.5500   24.9810   81.5140 C   0  0  0  0  0  0  0  0  0  0  0  0
   60.0060   25.9210   84.1020 O   0  0  0  0  0  0  0  0  0  0  0  0
   60.8220   24.7820   86.4810 C   0  0  0  0  0  0  0  0  0  0  0  0
   62.2260   22.6400   83.7470 N   0  0  0  0  0  0  0  0  0  0  0  0
   61.9530   23.0950   84.9800 C   0  0  0  0  0  0  0  0  0  0  0  0
   63.6130   22.9430   86.9520 C   0  0  0  0  0  0  0  0  0  0  0  0
   64.7670   23.3880   86.3120 C   0  0  0  0  0  0  0  0  0  0  0  0
   65.7950   23.9680   87.0530 C   0  0  0  0  0  0  0  0  0  0  0  0
  7  1  1  0
 32  1  1  0
 34  1  1  0
 14  2  2  0
 23  2  1  0
  4  3  2  0
 37  3  1  0
  5  4  1  0
 35  5  2  0
  7  6  1  0
  8  6  2  0
 30  6  1  0
 31  7  2  0
 33  8  1  0
 27  9  2  0
 30  9  1  0
 29 10  1  0
 30 10  2  0
 14 11  1  0
 22 11  1  0
 24 11  2  0
 13 12  2  0
 19 12  1  0
 20 12  1  0
 14 13  1  0
 23 15  2  0
 24 15  1  0
 21 16  1  0
 34 17  1  0
 35 17  1  0
 19 18  1  0
 21 20  1  0
 22 20  2  0
 25 24  1  0
 26 25  1  0
 27 26  1  0
 29 26  2  0
 28 27  1  0
 34 33  2  0
 36 35  1  0
 37 36  2  0
A    1
N1
A    2
N3
A    3
C4
A    4
C5
A    5
C6
A    6
C7
A    7
C8
A    8
C10
A    9
C13
A   10
C15
A   11
C17
A   12
C20
A   13
C21
A   14
C22
A   15
C24
A   16
C26
A   17
C28
A   18
C27
A   19
O2
A   20
C19
A   21
O1
A   22
C18
A   23
C23
A   24
C25
A   25
O3
A   26
C11
A   27
C12
A   28
F1
A   29
C16
A   30
C14
A   31
O4
A   32
C29
A   33
N2
A   34
C9
A   35
C1
A   36
C2
A   37
C3
M  END
>  <Id>  (4) 
3EFJ_MT3_B_2

>  <ChainId>  (4) 
B

>  <AsymId>  (4) 
D

>  <SeqNum>  (4) 
2

>  <Name>  (4) 
2-benzyl-5-{4-[(6,7-dimethoxyquinolin-4-yl)oxy]-3-fluorophenyl}-3-methylpyrimidin-4(3H)-one

>  <SystematicName>  (4) 
5-[4-(6,7-dimethoxyquinolin-4-yl)oxy-3-fluoro-phenyl]-3-methyl-2-(phenylmethyl)pyrimidin-4-one

>  <Synonyms>  (4) 


>  <Type>  (4) 
NON-POLYMER

>  <Formula>  (4) 
C29 H24 F N3 O4

>  <ObservedFormula>  (4) 
C29 F N3 O4

>  <MolecularWeight>  (4) 
497.517

>  <ModifiedDate>  (4) 
2011-06-04

>  <Parent>  (4) 


>  <OneLetterCode>  (4) 


>  <SubcomponentList>  (4) 


>  <AmbiguousFlag>  (4) 
N

>  <InsertionCode>  (4) 


>  <InstanceId>  (4) 
3EFJ_MT3_B_2

>  <ChemCompId>  (4) 
MT3

>  <PdbId>  (4) 
3EFJ

>  <ResidueNumber>  (4) 
2

>  <InChI>  (4) 
InChI=1S/C29H24FN3O4/c1-33-28(13-18-7-5-4-6-8-18)32-17-21(29(33)34)19-9-10-25(22(30)14-19)37-24-11-12-31-23-16-27(36-3)26(35-2)15-20(23)24/h4-12,14-17H,13H2,1-3H3

>  <InChIKey>  (4) 
IKPJWGNTDNCFPS-UHFFFAOYSA-N

>  <SMILES>  (4) 
CN1C(=NC=C(C1=O)c2ccc(c(c2)F)Oc3ccnc4c3cc(c(c4)OC)OC)Cc5ccccc5

>  <MissingHeavyAtoms>  (4) 
0

>  <Model>  (4) 
1

>  <AltIds>  (4) 


>  <pKI>  (4) 
7.41

>  <ChemblID>  (4) 
CHEMBL461648

>  <standardized_canonical_smiles>  (4) 
COc1cc2nccc(Oc3ccc(-c4cnc(Cc5ccccc5)n(C)c4=O)cc3F)c2cc1OC

$$$$
3EFK_MT4_B_2
     RDKit          3D

 38 42  0  0  0  0  0  0  0  0999 V2000
   62.3870   27.0020   74.9940 N   0  0  0  0  0  0  0  0  0  0  0  0
   63.8070   24.4610   85.0390 N   0  0  0  0  0  0  0  0  0  0  0  0
   62.4020   26.4510   77.2960 C   0  0  0  0  0  0  0  0  0  0  0  0
   61.0390   26.7320   77.3940 C   0  0  0  0  0  0  0  0  0  0  0  0
   58.3440   27.8660   75.1300 C   0  0  0  0  0  0  0  0  0  0  0  0
   59.0420   27.9950   73.9360 C   0  0  0  0  0  0  0  0  0  0  0  0
   60.4080   27.7050   73.9010 C   0  0  0  0  0  0  0  0  0  0  0  0
   59.1460   28.9840   71.7750 C   0  0  0  0  0  0  0  0  0  0  0  0
   61.1470   26.6520   80.7580 C   0  0  0  0  0  0  0  0  0  0  0  0
   61.9440   24.6880   81.9000 C   0  0  0  0  0  0  0  0  0  0  0  0
   61.1030   24.5440   79.6030 C   0  0  0  0  0  0  0  0  0  0  0  0
   63.7270   23.1550   85.3820 C   0  0  0  0  0  0  0  0  0  0  0  0
   63.2360   24.9230   83.9320 C   0  0  0  0  0  0  0  0  0  0  0  0
   62.9090   20.8160   84.9020 C   0  0  0  0  0  0  0  0  0  0  0  0
   65.1350   23.4200   88.6010 C   0  0  0  0  0  0  0  0  0  0  0  0
   67.2770   24.5380   88.6920 C   0  0  0  0  0  0  0  0  0  0  0  0
   66.4030   23.7910   86.5750 C   0  0  0  0  0  0  0  0  0  0  0  0
   58.3570   28.4150   72.8300 O   0  0  0  0  0  0  0  0  0  0  0  0
   57.0110   28.1570   75.1390 O   0  0  0  0  0  0  0  0  0  0  0  0
   56.5220   28.4770   76.4500 C   0  0  0  0  0  0  0  0  0  0  0  0
   59.0070   27.4430   76.2870 C   0  0  0  0  0  0  0  0  0  0  0  0
   60.3720   27.1560   76.2470 C   0  0  0  0  0  0  0  0  0  0  0  0
   61.0750   27.2870   75.0490 C   0  0  0  0  0  0  0  0  0  0  0  0
   63.0470   26.5900   76.0700 C   0  0  0  0  0  0  0  0  0  0  0  0
   60.3230   26.6070   78.5560 O   0  0  0  0  0  0  0  0  0  0  0  0
   60.8660   25.9220   79.6140 C   0  0  0  0  0  0  0  0  0  0  0  0
   61.6820   26.0560   81.8920 C   0  0  0  0  0  0  0  0  0  0  0  0
   60.8820   27.9680   80.7370 F   0  0  0  0  0  0  0  0  0  0  0  0
   61.6540   23.9530   80.7440 C   0  0  0  0  0  0  0  0  0  0  0  0
   62.5070   24.1030   83.0550 C   0  0  0  0  0  0  0  0  0  0  0  0
   62.3960   22.7390   83.3740 C   0  0  0  0  0  0  0  0  0  0  0  0
   61.7780   21.9470   82.6610 O   0  0  0  0  0  0  0  0  0  0  0  0
   63.0170   22.2580   84.5480 N   0  0  0  0  0  0  0  0  0  0  0  0
   64.3020   22.6860   86.5010 N   0  0  0  0  0  0  0  0  0  0  0  0
   65.2650   23.2970   87.2100 C   0  0  0  0  0  0  0  0  0  0  0  0
   66.1440   24.0440   89.3430 C   0  0  0  0  0  0  0  0  0  0  0  0
   68.2690   25.1410   89.3800 F   0  0  0  0  0  0  0  0  0  0  0  0
   67.4040   24.4140   87.3090 C   0  0  0  0  0  0  0  0  0  0  0  0
 23  1  2  0
 24  1  1  0
 12  2  2  0
 13  2  1  0
  4  3  1  0
 24  3  2  0
 22  4  2  0
 25  4  1  0
  6  5  1  0
 19  5  1  0
 21  5  2  0
  7  6  2  0
 18  6  1  0
 23  7  1  0
 18  8  1  0
 26  9  2  0
 27  9  1  0
 28  9  1  0
 27 10  2  0
 29 10  1  0
 30 10  1  0
 26 11  1  0
 29 11  2  0
 33 12  1  0
 34 12  1  0
 30 13  2  0
 33 14  1  0
 35 15  2  0
 36 15  1  0
 36 16  2  0
 37 16  1  0
 38 16  1  0
 35 17  1  0
 38 17  2  0
 20 19  1  0
 22 21  1  0
 23 22  1  0
 26 25  1  0
 31 30  1  0
 32 31  2  0
 33 31  1  0
 35 34  1  0
A    1
N1
A    2
N3
A    3
C4
A    4
C5
A    5
C6
A    6
C7
A    7
C8
A    8
C10
A    9
C13
A   10
C15
A   11
C17
A   12
C20
A   13
C21
A   14
C22
A   15
C24
A   16
C26
A   17
C28
A   18
O2
A   19
O1
A   20
C11
A   21
C9
A   22
C1
A   23
C2
A   24
C3
A   25
O3
A   26
C12
A   27
C14
A   28
F2
A   29
C16
A   30
C18
A   31
C19
A   32
O4
A   33
N2
A   34
N4
A   35
C23
A   36
C25
A   37
F1
A   38
C27
M  END
>  <Id>  (5) 
3EFK_MT4_B_2

>  <ChainId>  (5) 
B

>  <AsymId>  (5) 
D

>  <SeqNum>  (5) 
2

>  <Name>  (5) 
5-{4-[(6,7-dimethoxyquinolin-4-yl)oxy]-3-fluorophenyl}-2-[(4-fluorophenyl)amino]-3-methylpyrimidin-4(3H)-one

>  <SystematicName>  (5) 
5-[4-(6,7-dimethoxyquinolin-4-yl)oxy-3-fluoro-phenyl]-2-[(4-fluorophenyl)amino]-3-methyl-pyrimidin-4-one

>  <Synonyms>  (5) 


>  <Type>  (5) 
NON-POLYMER

>  <Formula>  (5) 
C28 H22 F2 N4 O4

>  <ObservedFormula>  (5) 
C28 F2 N4 O4

>  <MolecularWeight>  (5) 
516.495

>  <ModifiedDate>  (5) 
2011-06-04

>  <Parent>  (5) 


>  <OneLetterCode>  (5) 


>  <SubcomponentList>  (5) 


>  <AmbiguousFlag>  (5) 
N

>  <InsertionCode>  (5) 


>  <InstanceId>  (5) 
3EFK_MT4_B_2

>  <ChemCompId>  (5) 
MT4

>  <PdbId>  (5) 
3EFK

>  <ResidueNumber>  (5) 
2

>  <InChI>  (5) 
InChI=1S/C28H22F2N4O4/c1-34-27(35)20(15-32-28(34)33-18-7-5-17(29)6-8-18)16-4-9-24(21(30)12-16)38-23-10-11-31-22-14-26(37-3)25(36-2)13-19(22)23/h4-15H,1-3H3,(H,32,33)

>  <InChIKey>  (5) 
DUTNABYDBFVZOA-UHFFFAOYSA-N

>  <SMILES>  (5) 
CN1C(=O)C(=CN=C1Nc2ccc(cc2)F)c3ccc(c(c3)F)Oc4ccnc5c4cc(c(c5)OC)OC

>  <MissingHeavyAtoms>  (5) 
0

>  <Model>  (5) 
1

>  <AltIds>  (5) 


>  <pKI>  (5) 
7.85

>  <ChemblID>  (5) 
CHEMBL461831

>  <standardized_canonical_smiles>  (5) 
COc1cc2nccc(Oc3ccc(-c4cnc(Nc5ccc(F)cc5)n(C)c4=O)cc3F)c2cc1OC

$$$$
2RFN_AM7_B_1
     RDKit          3D

 45 50  0  0  0  0  0  0  0  0999 V2000
   54.9860   29.6040   68.7880 N   0  0  0  0  0  0  0  0  0  0  0  0
   61.9210   22.8120   83.7840 N   0  0  0  0  0  0  0  0  0  0  0  0
   55.4130   29.7720   67.3780 C   0  0  0  0  0  0  0  0  0  0  0  0
   63.3250   23.1720   86.9010 C   0  0  0  0  0  0  0  0  0  0  0  0
   64.4970   23.4520   86.1960 C   0  0  0  0  0  0  0  0  0  0  0  0
   65.6020   23.9870   86.8550 C   0  0  0  0  0  0  0  0  0  0  0  0
   65.5350   24.2490   88.2270 C   0  0  0  0  0  0  0  0  0  0  0  0
   63.2600   23.4280   88.2750 C   0  0  0  0  0  0  0  0  0  0  0  0
   61.5790   23.2850   84.9880 C   0  0  0  0  0  0  0  0  0  0  0  0
   59.2760   26.1650   79.0550 C   0  0  0  0  0  0  0  0  0  0  0  0
   60.1400   26.4390   81.2990 C   0  0  0  0  0  0  0  0  0  0  0  0
   59.3310   24.7810   79.1930 C   0  0  0  0  0  0  0  0  0  0  0  0
   59.0170   27.3810   75.6590 C   0  0  0  0  0  0  0  0  0  0  0  0
   57.6650   27.7370   75.6460 C   0  0  0  0  0  0  0  0  0  0  0  0
   57.8590   28.3500   73.3280 C   0  0  0  0  0  0  0  0  0  0  0  0
   59.7900   27.5090   74.5100 C   0  0  0  0  0  0  0  0  0  0  0  0
   60.9390   26.5360   76.7980 C   0  0  0  0  0  0  0  0  0  0  0  0
   53.7370   28.8310   68.8840 C   0  0  0  0  0  0  0  0  0  0  0  0
   52.6280   29.5330   68.0770 C   0  0  0  0  0  0  0  0  0  0  0  0
   53.0680   29.6430   66.6950 O   0  0  0  0  0  0  0  0  0  0  0  0
   54.2830   30.4480   66.5870 C   0  0  0  0  0  0  0  0  0  0  0  0
   56.0270   28.8720   69.5150 C   0  0  0  0  0  0  0  0  0  0  0  0
   57.0930   29.8330   70.0620 C   0  0  0  0  0  0  0  0  0  0  0  0
   58.0300   29.1280   71.0620 C   0  0  0  0  0  0  0  0  0  0  0  0
   57.2300   28.8520   72.2280 O   0  0  0  0  0  0  0  0  0  0  0  0
   59.2120   28.0000   73.3390 C   0  0  0  0  0  0  0  0  0  0  0  0
   57.0820   28.2080   74.4740 C   0  0  0  0  0  0  0  0  0  0  0  0
   55.7590   28.5870   74.4100 O   0  0  0  0  0  0  0  0  0  0  0  0
   54.8020   27.6710   75.0150 C   0  0  0  0  0  0  0  0  0  0  0  0
   61.0800   27.1640   74.5280 N   0  0  0  0  0  0  0  0  0  0  0  0
   61.6510   26.6870   75.6160 C   0  0  0  0  0  0  0  0  0  0  0  0
   59.5980   26.8880   76.8180 C   0  0  0  0  0  0  0  0  0  0  0  0
   58.8070   26.7540   77.9190 O   0  0  0  0  0  0  0  0  0  0  0  0
   59.6730   26.9850   80.1060 C   0  0  0  0  0  0  0  0  0  0  0  0
   59.6070   28.3240   79.9590 F   0  0  0  0  0  0  0  0  0  0  0  0
   59.8000   24.2440   80.3940 C   0  0  0  0  0  0  0  0  0  0  0  0
   60.2180   25.0590   81.4540 C   0  0  0  0  0  0  0  0  0  0  0  0
   60.6730   24.4850   82.6550 C   0  0  0  0  0  0  0  0  0  0  0  0
   60.2860   25.0060   83.8840 C   0  0  0  0  0  0  0  0  0  0  0  0
   59.5440   25.9900   83.9030 O   0  0  0  0  0  0  0  0  0  0  0  0
   60.7330   24.3980   85.0810 N   0  0  0  0  0  0  0  0  0  0  0  0
   60.3140   24.9370   86.4070 C   0  0  0  0  0  0  0  0  0  0  0  0
   61.5000   23.3700   82.6610 C   0  0  0  0  0  0  0  0  0  0  0  0
   62.1050   22.5500   86.2200 C   0  0  0  0  0  0  0  0  0  0  0  0
   64.3620   23.9700   88.9400 C   0  0  0  0  0  0  0  0  0  0  0  0
  3  1  1  0
 18  1  1  0
 22  1  1  0
  9  2  2  0
 43  2  1  0
 21  3  1  0
  5  4  2  0
  8  4  1  0
 44  4  1  0
  6  5  1  0
  7  6  2  0
 45  7  1  0
 45  8  2  0
 41  9  1  0
 44  9  1  0
 12 10  2  0
 33 10  1  0
 34 10  1  0
 34 11  2  0
 37 11  1  0
 36 12  1  0
 14 13  2  0
 16 13  1  0
 32 13  1  0
 27 14  1  0
 25 15  1  0
 26 15  1  0
 27 15  2  0
 26 16  2  0
 30 16  1  0
 31 17  1  0
 32 17  2  0
 19 18  1  0
 20 19  1  0
 21 20  1  0
 23 22  1  0
 24 23  1  0
 25 24  1  0
 28 27  1  0
 29 28  1  0
 31 30  2  0
 33 32  1  0
 35 34  1  0
 37 36  2  0
 38 37  1  0
 39 38  1  0
 43 38  2  0
 40 39  2  0
 41 39  1  0
 42 41  1  0
A    1
N1
A    2
N3
A    3
C4
A    4
C5
A    5
C6
A    6
C7
A    7
C8
A    8
C10
A    9
C13
A   10
C15
A   11
C17
A   12
C20
A   13
C21
A   14
C22
A   15
C24
A   16
C26
A   17
C28
A   18
C1
A   19
C2
A   20
O1
A   21
C3
A   22
C33
A   23
C32
A   24
C31
A   25
O3
A   26
C25
A   27
C23
A   28
O2
A   29
C35
A   30
N4
A   31
C27
A   32
C29
A   33
O4
A   34
C16
A   35
F1
A   36
C19
A   37
C18
A   38
C11
A   39
C12
A   40
O5
A   41
N2
A   42
C34
A   43
C14
A   44
C30
A   45
C9
M  END
>  <Id>  (6) 
2RFN_AM7_B_1

>  <ChainId>  (6) 
B

>  <AsymId>  (6) 
D

>  <SeqNum>  (6) 
1

>  <Name>  (6) 
2-benzyl-5-(3-fluoro-4-{[6-methoxy-7-(3-morpholin-4-ylpropoxy)quinolin-4-yl]oxy}phenyl)-3-methylpyrimidin-4(3H)-one

>  <SystematicName>  (6) 
5-[3-fluoro-4-[6-methoxy-7-(3-morpholin-4-ylpropoxy)quinolin-4-yl]oxy-phenyl]-3-methyl-2-(phenylmethyl)pyrimidin-4-one

>  <Synonyms>  (6) 


>  <Type>  (6) 
NON-POLYMER

>  <Formula>  (6) 
C35 H35 F N4 O5

>  <ObservedFormula>  (6) 
C35 F N4 O5

>  <MolecularWeight>  (6) 
610.675

>  <ModifiedDate>  (6) 
2011-06-04

>  <Parent>  (6) 


>  <OneLetterCode>  (6) 


>  <SubcomponentList>  (6) 


>  <AmbiguousFlag>  (6) 


>  <InsertionCode>  (6) 


>  <InstanceId>  (6) 
2RFN_AM7_B_1

>  <ChemCompId>  (6) 
AM7

>  <PdbId>  (6) 
2RFN

>  <ResidueNumber>  (6) 
1

>  <InChI>  (6) 
InChI=1S/C35H35FN4O5/c1-39-34(19-24-7-4-3-5-8-24)38-23-27(35(39)41)25-9-10-31(28(36)20-25)45-30-11-12-37-29-22-33(32(42-2)21-26(29)30)44-16-6-13-40-14-17-43-18-15-40/h3-5,7-12,20-23H,6,13-19H2,1-2H3

>  <InChIKey>  (6) 
PEGWVOKOYYAQEV-UHFFFAOYSA-N

>  <SMILES>  (6) 
CN1C(=NC=C(C1=O)c2ccc(c(c2)F)Oc3ccnc4c3cc(c(c4)OCCCN5CCOCC5)OC)Cc6ccccc6

>  <MissingHeavyAtoms>  (6) 
0

>  <Model>  (6) 
1

>  <AltIds>  (6) 


>  <pKI>  (6) 
8.05

>  <ChemblID>  (6) 
CHEMBL505896

>  <standardized_canonical_smiles>  (6) 
COc1cc2c(Oc3ccc(-c4cnc(Cc5ccccc5)n(C)c4=O)cc3F)ccnc2cc1OCCCN1CCOCC1

$$$$
2WGJ_VGH_A_2346
     RDKit          3D

 30 33  0  0  0  0  0  0  0  0999 V2000
   18.3190   84.5690    3.5460 Cl  0  0  0  0  0  0  0  0  0  0  0  0
   18.1880   83.5860    4.9680 C   0  0  0  0  0  0  0  0  0  0  0  0
   17.7190   82.2880    4.7140 C   0  0  0  0  0  0  0  0  0  0  0  0
   17.5350   81.3810    5.7410 C   0  0  0  0  0  0  0  0  0  0  0  0
   17.8350   81.7940    7.0210 C   0  0  0  0  0  0  0  0  0  0  0  0
   17.6610   80.9190    8.0020 F   0  0  0  0  0  0  0  0  0  0  0  0
   18.5060   84.0320    6.2790 C   0  0  0  0  0  0  0  0  0  0  0  0
   18.3160   83.0790    7.3080 C   0  0  0  0  0  0  0  0  0  0  0  0
   18.6180   83.3970    8.9860 Cl  0  0  0  0  0  0  0  0  0  0  0  0
   19.0330   85.4490    6.5390 C   0  0  0  0  0  0  0  0  0  0  0  0
   18.1170   86.2490    7.4610 C   0  0  0  0  0  0  0  0  0  0  0  0
   20.3420   85.4420    7.1510 O   0  0  0  0  0  0  0  0  0  0  0  0
   21.5270   85.1380    6.5080 C   0  0  0  0  0  0  0  0  0  0  0  0
   21.7440   84.7620    5.1640 C   0  0  0  0  0  0  0  0  0  0  0  0
   22.6660   85.2200    7.3240 C   0  0  0  0  0  0  0  0  0  0  0  0
   22.5410   85.5760    8.6720 N   0  0  0  0  0  0  0  0  0  0  0  0
   23.9230   84.9750    6.8780 N   0  0  0  0  0  0  0  0  0  0  0  0
   24.0840   84.6250    5.5840 C   0  0  0  0  0  0  0  0  0  0  0  0
   23.0440   84.5010    4.6710 C   0  0  0  0  0  0  0  0  0  0  0  0
   23.3350   84.0870    3.3020 C   0  0  0  0  0  0  0  0  0  0  0  0
   22.5200   83.6280    2.2370 C   0  0  0  0  0  0  0  0  0  0  0  0
   24.6060   84.0070    2.7650 C   0  0  0  0  0  0  0  0  0  0  0  0
   24.4970   83.5610    1.4840 N   0  0  0  0  0  0  0  0  0  0  0  0
   23.2130   83.3190    1.1370 N   0  0  0  0  0  0  0  0  0  0  0  0
   25.5950   83.3510    0.5360 C   0  0  0  0  0  0  0  0  0  0  0  0
   26.0300   81.8930    0.2920 C   0  0  0  0  0  0  0  0  0  0  0  0
   25.5280   81.2150   -0.9840 C   0  0  0  0  0  0  0  0  0  0  0  0
   25.5020   82.1510   -2.1590 N   0  0  0  0  0  0  0  0  0  0  0  0
   24.8400   83.4750   -1.9280 C   0  0  0  0  0  0  0  0  0  0  0  0
   25.5000   84.1910   -0.7510 C   0  0  0  0  0  0  0  0  0  0  0  0
  2  1  1  0
  3  2  2  0
  7  2  1  0
  4  3  1  0
  5  4  2  0
  6  5  1  0
  8  5  1  0
  8  7  2  0
 10  7  1  0
  9  8  1  0
 11 10  1  0
 12 10  1  0
 13 12  1  0
 14 13  2  0
 15 13  1  0
 19 14  1  0
 16 15  1  0
 17 15  2  0
 18 17  1  0
 19 18  2  0
 20 19  1  0
 21 20  1  0
 22 20  2  0
 24 21  2  0
 23 22  1  0
 24 23  1  0
 25 23  1  0
 26 25  1  0
 30 25  1  0
 27 26  1  0
 28 27  1  0
 29 28  1  0
 30 29  1  0
A    1
CL
A    2
C13
A    3
C3
A    4
C2
A    5
C12
A    6
F
A    7
C17
A    8
C18
A    9
CL2
A   10
C21
A   11
C1
A   12
O27
A   13
C15
A   14
C4
A   15
C19
A   16
N22
A   17
N23
A   18
C5
A   19
C14
A   20
C16
A   21
C6
A   22
C7
A   23
N26
A   24
N24
A   25
C20
A   26
C8
A   27
C10
A   28
N25
A   29
C11
A   30
C9
M  END
>  <Id>  (7) 
2WGJ_VGH_A_2346

>  <ChainId>  (7) 
A

>  <AsymId>  (7) 
B

>  <SeqNum>  (7) 
2346

>  <Name>  (7) 
3-[(1R)-1-(2,6-dichloro-3-fluorophenyl)ethoxy]-5-(1-piperidin-4-yl-1H-pyrazol-4-yl)pyridin-2-amine

>  <SystematicName>  (7) 
3-[(1R)-1-(2,6-dichloro-3-fluoro-phenyl)ethoxy]-5-(1-piperidin-4-ylpyrazol-4-yl)pyridin-2-amine

>  <Synonyms>  (7) 
CRIZOTINIB

>  <Type>  (7) 
non-polymer

>  <Formula>  (7) 
C21 H22 Cl2 F N5 O

>  <ObservedFormula>  (7) 
C21 F Cl2 N5 O

>  <MolecularWeight>  (7) 
450.337

>  <ModifiedDate>  (7) 
2011-06-04

>  <Parent>  (7) 


>  <OneLetterCode>  (7) 


>  <SubcomponentList>  (7) 


>  <AmbiguousFlag>  (7) 
N

>  <InsertionCode>  (7) 


>  <InstanceId>  (7) 
2WGJ_VGH_A_2346

>  <ChemCompId>  (7) 
VGH

>  <PdbId>  (7) 
2WGJ

>  <ResidueNumber>  (7) 
2346

>  <InChI>  (7) 
InChI=1S/C21H22Cl2FN5O/c1-12(19-16(22)2-3-17(24)20(19)23)30-18-8-13(9-27-21(18)25)14-10-28-29(11-14)15-4-6-26-7-5-15/h2-3,8-12,15,26H,4-7H2,1H3,(H2,25,27)/t12-/m1/s1

>  <InChIKey>  (7) 
KTEIFNKAUNYNJU-GFCCVEGCSA-N

>  <SMILES>  (7) 
C[C@H](c1c(ccc(c1Cl)F)Cl)Oc2cc(cnc2N)c3cnn(c3)C4CCNCC4

>  <MissingHeavyAtoms>  (7) 
0

>  <Model>  (7) 
1

>  <AltIds>  (7) 


>  <pKI>  (7) 
8.55

>  <ChemblID>  (7) 
CHEMBL601719

>  <standardized_canonical_smiles>  (7) 
C[C@@H](Oc1cc(-c2cnn(C3CCNCC3)c2)cnc1N)c1c(Cl)ccc(F)c1Cl

$$$$
4DEG_0JJ_A_1401
     RDKit          3D

 29 33  0  0  0  0  0  0  0  0999 V2000
   14.0840   11.3520   60.3370 C   0  0  0  0  0  0  0  0  0  0  0  0
   15.3310   11.3790   59.4520 C   0  0  0  0  0  0  0  0  0  0  0  0
   16.0790   12.4930   59.3000 C   0  0  0  0  0  0  0  0  0  0  0  0
   15.7410   10.2850   58.7950 N   0  0  0  0  0  0  0  0  0  0  0  0
   17.1070   10.7170   57.9590 S   0  0  0  0  0  0  0  0  0  0  0  0
   17.1360   12.3230   58.4940 C   0  0  0  0  0  0  0  0  0  0  0  0
   18.1040   13.2370   58.0870 C   0  0  0  0  0  0  0  0  0  0  0  0
   18.1340   14.5230   58.6330 C   0  0  0  0  0  0  0  0  0  0  0  0
   19.1030   15.4120   58.1880 C   0  0  0  0  0  0  0  0  0  0  0  0
   18.9980   12.8780   57.1400 N   0  0  0  0  0  0  0  0  0  0  0  0
   19.8710   13.6580   56.7320 N   0  0  0  0  0  0  0  0  0  0  0  0
   19.9880   14.9600   57.2140 C   0  0  0  0  0  0  0  0  0  0  0  0
   21.0150   15.5230   56.5780 N   0  0  0  0  0  0  0  0  0  0  0  0
   21.5370   14.7360   55.7710 N   0  0  0  0  0  0  0  0  0  0  0  0
   20.8970   13.5640   55.7960 C   0  0  0  0  0  0  0  0  0  0  0  0
   21.1820   12.2970   54.9790 C   0  0  0  0  0  0  0  0  0  0  0  0
   21.1230   11.0950   55.8350 N   0  0  0  0  0  0  0  0  0  0  0  0
   22.1260   10.7110   56.6400 C   0  0  0  0  0  0  0  0  0  0  0  0
   23.3650   11.3590   56.6590 C   0  0  0  0  0  0  0  0  0  0  0  0
   24.3600   10.9030   57.5270 C   0  0  0  0  0  0  0  0  0  0  0  0
   24.1480    9.8630   58.3260 N   0  0  0  0  0  0  0  0  0  0  0  0
   22.9710    9.2100   58.3310 C   0  0  0  0  0  0  0  0  0  0  0  0
   22.7660    8.1230   59.1830 C   0  0  0  0  0  0  0  0  0  0  0  0
   21.9360    9.6240   57.4880 C   0  0  0  0  0  0  0  0  0  0  0  0
   20.7580    8.9810   57.4960 N   0  0  0  0  0  0  0  0  0  0  0  0
   20.5420    7.9440   58.2950 C   0  0  0  0  0  0  0  0  0  0  0  0
   21.5290    7.4750   59.1650 C   0  0  0  0  0  0  0  0  0  0  0  0
   21.2300    6.3920   59.9540 O   0  0  0  0  0  0  0  0  0  0  0  0
   22.0430    6.1810   61.1190 C   0  0  0  0  0  0  0  0  0  0  0  0
  2  1  1  0
  3  2  1  0
  4  2  2  0
  6  3  2  0
  5  4  1  0
  6  5  1  0
  7  6  1  0
  8  7  1  0
 10  7  2  0
  9  8  2  0
 12  9  1  0
 11 10  1  0
 12 11  1  0
 15 11  1  0
 13 12  2  0
 14 13  1  0
 15 14  2  0
 16 15  1  0
 17 16  1  0
 18 17  1  0
 19 18  2  0
 24 18  1  0
 20 19  1  0
 21 20  2  0
 22 21  1  0
 23 22  1  0
 24 22  2  0
 27 23  2  0
 25 24  1  0
 26 25  2  0
 27 26  1  0
 28 27  1  0
 29 28  1  0
A    1
C7
A    2
C5
A    3
C6
A    4
N2
A    5
S1
A    6
C4
A    7
C3
A    8
C1
A    9
C2
A   10
N1
A   11
N3
A   12
C8
A   13
N4
A   14
N5
A   15
C9
A   16
C10
A   17
N6
A   18
C11
A   19
C12
A   20
C13
A   21
N7
A   22
C15
A   23
C16
A   24
C14
A   25
N8
A   26
C18
A   27
C17
A   28
O1
A   29
C19
M  END
>  <Id>  (8) 
4DEG_0JJ_A_1401

>  <ChainId>  (8) 
A

>  <AsymId>  (8) 
B

>  <SeqNum>  (8) 
1401

>  <Name>  (8) 
7-methoxy-N-{[6-(3-methyl-1,2-thiazol-5-yl)[1,2,4]triazolo[4,3-b]pyridazin-3-yl]methyl}-1,5-naphthyridin-4-amine

>  <SystematicName>  (8) 
7-methoxy-N-[[6-(3-methyl-1,2-thiazol-5-yl)-[1,2,4]triazolo[4,3-b]pyridazin-3-yl]methyl]-1,5-naphthyridin-4-amine

>  <Synonyms>  (8) 


>  <Type>  (8) 
NON-POLYMER

>  <Formula>  (8) 
C19 H16 N8 O S

>  <ObservedFormula>  (8) 
C19 S N8 O

>  <MolecularWeight>  (8) 
404.448

>  <ModifiedDate>  (8) 
2012-05-25

>  <Parent>  (8) 


>  <OneLetterCode>  (8) 


>  <SubcomponentList>  (8) 


>  <AmbiguousFlag>  (8) 
N

>  <InsertionCode>  (8) 


>  <InstanceId>  (8) 
4DEG_0JJ_A_1401

>  <ChemCompId>  (8) 
0JJ

>  <PdbId>  (8) 
4DEG

>  <ResidueNumber>  (8) 
1401

>  <InChI>  (8) 
InChI=1S/C19H16N8OS/c1-11-7-16(29-26-11)13-3-4-17-23-24-18(27(17)25-13)10-21-14-5-6-20-15-8-12(28-2)9-22-19(14)15/h3-9H,10H2,1-2H3,(H,20,21)

>  <InChIKey>  (8) 
QMWKLCXWSJTEFT-UHFFFAOYSA-N

>  <SMILES>  (8) 
Cc1cc(sn1)c2ccc3nnc(n3n2)CNc4ccnc5c4ncc(c5)OC

>  <MissingHeavyAtoms>  (8) 
0

>  <Model>  (8) 
1

>  <AltIds>  (8) 


>  <pKI>  (8) 
8.49

>  <ChemblID>  (8) 
CHEMBL566685

>  <standardized_canonical_smiles>  (8) 
COc1cnc2c(NCc3nnc4ccc(-c5cc(C)ns5)nn34)ccnc2c1

$$$$
3U6H_03X_A_1
     RDKit          3D

 39 43  0  0  0  0  0  0  0  0999 V2000
   23.4690    5.3680  -23.8500 N   0  0  0  0  0  0  0  0  0  0  0  0
   24.8570    0.7100  -12.1500 N   0  0  0  0  0  0  0  0  0  0  0  0
   20.0570    6.0750  -22.7430 C   0  0  0  0  0  0  0  0  0  0  0  0
   21.4070    5.7030  -22.7050 C   0  0  0  0  0  0  0  0  0  0  0  0
   22.1700    5.7340  -23.8730 C   0  0  0  0  0  0  0  0  0  0  0  0
   24.0650    4.9630  -22.7220 C   0  0  0  0  0  0  0  0  0  0  0  0
   23.3510    4.9180  -21.5210 C   0  0  0  0  0  0  0  0  0  0  0  0
   21.6760    4.6320  -19.2390 C   0  0  0  0  0  0  0  0  0  0  0  0
   22.0870    5.4280  -18.1770 C   0  0  0  0  0  0  0  0  0  0  0  0
   22.5960    3.4850  -16.8400 C   0  0  0  0  0  0  0  0  0  0  0  0
   21.7170    3.2360  -19.1050 C   0  0  0  0  0  0  0  0  0  0  0  0
   24.2570    0.3960  -13.3030 C   0  0  0  0  0  0  0  0  0  0  0  0
   24.3470    2.5760  -13.0460 C   0  0  0  0  0  0  0  0  0  0  0  0
   24.0060   -1.0200  -13.8340 C   0  0  0  0  0  0  0  0  0  0  0  0
   25.5010    2.5350  -10.9570 C   0  0  0  0  0  0  0  0  0  0  0  0
   27.6730    3.2190  -10.0790 C   0  0  0  0  0  0  0  0  0  0  0  0
   25.6540    3.5870   -8.8040 C   0  0  0  0  0  0  0  0  0  0  0  0
   20.4320    7.0050  -27.4480 C   0  0  0  0  0  0  0  0  0  0  0  0
   19.6150    6.9250  -26.2600 O   0  0  0  0  0  0  0  0  0  0  0  0
   20.2370    6.5170  -25.1090 C   0  0  0  0  0  0  0  0  0  0  0  0
   21.5820    6.1400  -25.0740 C   0  0  0  0  0  0  0  0  0  0  0  0
   19.4730    6.4810  -23.9470 C   0  0  0  0  0  0  0  0  0  0  0  0
   18.1610    6.8700  -24.0390 O   0  0  0  0  0  0  0  0  0  0  0  0
   17.3670    6.8220  -22.8260 C   0  0  0  0  0  0  0  0  0  0  0  0
   21.9960    5.2830  -21.5050 C   0  0  0  0  0  0  0  0  0  0  0  0
   21.2250    5.2650  -20.3720 O   0  0  0  0  0  0  0  0  0  0  0  0
   22.5560    4.8690  -16.9910 C   0  0  0  0  0  0  0  0  0  0  0  0
   22.0400    6.7580  -18.3060 F   0  0  0  0  0  0  0  0  0  0  0  0
   22.1870    2.6710  -17.9060 C   0  0  0  0  0  0  0  0  0  0  0  0
   23.0950    3.0270  -15.6790 N   0  0  0  0  0  0  0  0  0  0  0  0
   23.2090    1.7580  -15.2730 C   0  0  0  0  0  0  0  0  0  0  0  0
   22.8570    0.7750  -15.9190 O   0  0  0  0  0  0  0  0  0  0  0  0
   23.8940    1.5860  -13.9110 C   0  0  0  0  0  0  0  0  0  0  0  0
   24.2280    3.7940  -13.2070 O   0  0  0  0  0  0  0  0  0  0  0  0
   25.3870   -0.3120  -11.1710 C   0  0  0  0  0  0  0  0  0  0  0  0
   24.8900    1.9470  -11.9880 N   0  0  0  0  0  0  0  0  0  0  0  0
   26.8930    2.6440  -11.0770 C   0  0  0  0  0  0  0  0  0  0  0  0
   27.0410    3.6950   -8.9360 C   0  0  0  0  0  0  0  0  0  0  0  0
   24.8710    3.0090   -9.8080 C   0  0  0  0  0  0  0  0  0  0  0  0
  5  1  2  0
  6  1  1  0
 12  2  1  0
 35  2  1  0
 36  2  1  0
  4  3  1  0
 22  3  2  0
  5  4  1  0
 25  4  2  0
 21  5  1  0
  7  6  2  0
 25  7  1  0
  9  8  2  0
 11  8  1  0
 26  8  1  0
 27  9  1  0
 28  9  1  0
 27 10  2  0
 29 10  1  0
 30 10  1  0
 29 11  2  0
 14 12  1  0
 33 12  2  0
 33 13  1  0
 34 13  2  0
 36 13  1  0
 36 15  1  0
 37 15  1  0
 39 15  2  0
 37 16  2  0
 38 16  1  0
 38 17  2  0
 39 17  1  0
 19 18  1  0
 20 19  1  0
 21 20  2  0
 22 20  1  0
 23 22  1  0
 24 23  1  0
 26 25  1  0
 31 30  1  0
 32 31  2  0
 33 31  1  0
A    1
N1
A    2
N3
A    3
C4
A    4
C5
A    5
C6
A    6
C7
A    7
C8
A    8
C10
A    9
C13
A   10
C15
A   11
C17
A   12
C20
A   13
C21
A   14
C22
A   15
C24
A   16
C26
A   17
C28
A   18
C11
A   19
O3
A   20
C2
A   21
C3
A   22
C1
A   23
O2
A   24
C12
A   25
C9
A   26
O1
A   27
C14
A   28
F1
A   29
C16
A   30
N2
A   31
C18
A   32
O4
A   33
C19
A   34
O5
A   35
C23
A   36
N4
A   37
C25
A   38
C27
A   39
C29
M  END
>  <Id>  (9) 
3U6H_03X_A_1

>  <ChainId>  (9) 
A

>  <AsymId>  (9) 
B

>  <SeqNum>  (9) 
1

>  <Name>  (9) 
N-{4-[(6,7-dimethoxyquinolin-4-yl)oxy]-3-fluorophenyl}-1,5-dimethyl-3-oxo-2-phenyl-2,3-dihydro-1H-pyrazole-4-carboxamide

>  <SystematicName>  (9) 
N-[4-(6,7-dimethoxyquinolin-4-yl)oxy-3-fluoranyl-phenyl]-1,5-dimethyl-3-oxidanylidene-2-phenyl-pyrazole-4-carboxamide

>  <Synonyms>  (9) 


>  <Type>  (9) 
NON-POLYMER

>  <Formula>  (9) 
C29 H25 F N4 O5

>  <ObservedFormula>  (9) 
C29 F N4 O5

>  <MolecularWeight>  (9) 
528.531

>  <ModifiedDate>  (9) 
2012-02-17

>  <Parent>  (9) 


>  <OneLetterCode>  (9) 


>  <SubcomponentList>  (9) 


>  <AmbiguousFlag>  (9) 
N

>  <InsertionCode>  (9) 


>  <InstanceId>  (9) 
3U6H_03X_A_1

>  <ChemCompId>  (9) 
03X

>  <PdbId>  (9) 
3U6H

>  <ResidueNumber>  (9) 
1

>  <InChI>  (9) 
InChI=1S/C29H25FN4O5/c1-17-27(29(36)34(33(17)2)19-8-6-5-7-9-19)28(35)32-18-10-11-24(21(30)14-18)39-23-12-13-31-22-16-26(38-4)25(37-3)15-20(22)23/h5-16H,1-4H3,(H,32,35)

>  <InChIKey>  (9) 
SBLMCLDRWJNEJK-UHFFFAOYSA-N

>  <SMILES>  (9) 
CC1=C(C(=O)N(N1C)c2ccccc2)C(=O)Nc3ccc(c(c3)F)Oc4ccnc5c4cc(c(c5)OC)OC

>  <MissingHeavyAtoms>  (9) 
0

>  <Model>  (9) 
1

>  <AltIds>  (9) 


>  <pKI>  (9) 
9.0

>  <ChemblID>  (9) 
CHEMBL2031893

>  <standardized_canonical_smiles>  (9) 
COc1cc2nccc(Oc3ccc(NC(=O)c4c(C)n(C)n(-c5ccccc5)c4=O)cc3F)c2cc1OC

$$$$
4AOI_4K0_A_2345
     RDKit          3D

 27 31  0  0  0  0  0  0  0  0999 V2000
   19.4290   80.5960   -1.7810 N   0  0  0  0  0  0  0  0  0  0  0  0
   19.2430   80.8020   -0.6550 C   0  0  0  0  0  0  0  0  0  0  0  0
   19.0320   81.0490    0.7060 C   0  0  0  0  0  0  0  0  0  0  0  0
   19.5030   82.2600    1.2980 C   0  0  0  0  0  0  0  0  0  0  0  0
   18.3460   80.0940    1.5260 C   0  0  0  0  0  0  0  0  0  0  0  0
   18.1380   80.3480    2.9210 C   0  0  0  0  0  0  0  0  0  0  0  0
   18.6110   81.5680    3.5270 C   0  0  0  0  0  0  0  0  0  0  0  0
   19.2960   82.5180    2.6890 C   0  0  0  0  0  0  0  0  0  0  0  0
   18.4240   81.8770    4.9850 C   0  0  0  0  0  0  0  0  0  0  0  0
   18.8480   83.0920    5.4400 N   0  0  0  0  0  0  0  0  0  0  0  0
   18.6770   83.3270    6.7090 N   0  0  0  0  0  0  0  0  0  0  0  0
   18.1060   82.4450    7.6060 C   0  0  0  0  0  0  0  0  0  0  0  0
   17.6560   81.2180    7.2460 N   0  0  0  0  0  0  0  0  0  0  0  0
   17.8240   80.9390    5.9090 C   0  0  0  0  0  0  0  0  0  0  0  0
   18.9860   84.4260    7.4700 C   0  0  0  0  0  0  0  0  0  0  0  0
   18.6230   84.1870    8.6910 N   0  0  0  0  0  0  0  0  0  0  0  0
   18.0940   82.9970    8.7720 N   0  0  0  0  0  0  0  0  0  0  0  0
   19.6400   85.7180    6.9930 C   0  0  0  0  0  0  0  0  0  0  0  0
   21.1620   85.6280    7.0510 C   0  0  0  0  0  0  0  0  0  0  0  0
   21.9560   85.7590    8.1850 C   0  0  0  0  0  0  0  0  0  0  0  0
   22.0640   85.3980    5.9640 C   0  0  0  0  0  0  0  0  0  0  0  0
   21.8560   85.1870    4.5650 C   0  0  0  0  0  0  0  0  0  0  0  0
   23.0260   84.9840    3.7510 C   0  0  0  0  0  0  0  0  0  0  0  0
   23.3590   85.3970    6.4730 C   0  0  0  0  0  0  0  0  0  0  0  0
   23.2880   85.6170    7.8230 N   0  0  0  0  0  0  0  0  0  0  0  0
   24.4910   85.2100    5.7330 N   0  0  0  0  0  0  0  0  0  0  0  0
   24.3150   85.0050    4.3800 C   0  0  0  0  0  0  0  0  0  0  0  0
  2  1  3  0
  3  2  1  0
  4  3  2  0
  5  3  1  0
  8  4  1  0
  6  5  2  0
  7  6  1  0
  8  7  2  0
  9  7  1  0
 10  9  2  0
 14  9  1  0
 11 10  1  0
 12 11  1  0
 15 11  1  0
 13 12  1  0
 17 12  2  0
 14 13  2  0
 16 15  2  0
 18 15  1  0
 17 16  1  0
 19 18  1  0
 20 19  2  0
 21 19  1  0
 25 20  1  0
 22 21  2  0
 24 21  1  0
 23 22  1  0
 27 23  2  0
 25 24  1  0
 26 24  2  0
 27 26  1  0
A    1
N23
A    2
C22
A    3
C19
A    4
C20
A    5
C18
A    6
C17
A    7
C16
A    8
C21
A    9
C12
A   10
N15
A   11
N7
A   12
C8
A   13
N14
A   14
C13
A   15
C11
A   16
N10
A   17
N9
A   18
C24
A   19
C25
A   20
C26
A   21
C1
A   22
C6
A   23
C5
A   24
C2
A   25
N27
A   26
N3
A   27
C4
M  END
>  <Id>  (10) 
4AOI_4K0_A_2345

>  <ChainId>  (10) 
A

>  <AsymId>  (10) 
B

>  <SeqNum>  (10) 
2345

>  <Name>  (10) 
4-[3-(1H-pyrrolo[2,3-b]pyridin-3-ylmethyl)-[1,2,4]triazolo[4,3-b][1,2,4]triazin-6-yl]benzenecarbonitrile

>  <SystematicName>  (10) 
4-[3-(1H-pyrrolo[2,3-b]pyridin-3-ylmethyl)-[1,2,4]triazolo[4,3-b][1,2,4]triazin-6-yl]benzenecarbonitrile

>  <Synonyms>  (10) 


>  <Type>  (10) 
non-polymer

>  <Formula>  (10) 
C19 H12 N8

>  <ObservedFormula>  (10) 
C19 N8

>  <MolecularWeight>  (10) 
352.352

>  <ModifiedDate>  (10) 
2014-09-05

>  <Parent>  (10) 


>  <OneLetterCode>  (10) 


>  <SubcomponentList>  (10) 


>  <AmbiguousFlag>  (10) 
N

>  <InsertionCode>  (10) 


>  <InstanceId>  (10) 
4AOI_4K0_A_2345

>  <ChemCompId>  (10) 
4K0

>  <PdbId>  (10) 
4AOI

>  <ResidueNumber>  (10) 
2345

>  <InChI>  (10) 
InChI=1S/C19H12N8/c20-9-12-3-5-13(6-4-12)16-11-23-19-25-24-17(27(19)26-16)8-14-10-22-18-15(14)2-1-7-21-18/h1-7,10-11H,8H2,(H,21,22)

>  <InChIKey>  (10) 
JJWKCZCBEYPJAJ-UHFFFAOYSA-N

>  <SMILES>  (10) 
c1cc2c(c[nH]c2nc1)Cc3nnc4n3nc(cn4)c5ccc(cc5)C#N

>  <MissingHeavyAtoms>  (10) 
0

>  <Model>  (10) 
1

>  <AltIds>  (10) 


>  <pKI>  (10) 
8.4

>  <ChemblID>  (10) 
CHEMBL2170968

>  <standardized_canonical_smiles>  (10) 
N#Cc1ccc(-c2cnc3nnc(Cc4c[nH]c5ncccc45)n3n2)cc1

$$$$
3ZBX_6XE_A_2345
     RDKit          3D

 27 31  0  0  0  0  0  0  0  0999 V2000
   22.3960    8.7570   41.5800 C   0  0  0  0  0  0  0  0  0  0  0  0
   23.4670    8.6310   40.6000 C   0  0  0  0  0  0  0  0  0  0  0  0
   24.7620    8.7350   41.0090 N   0  0  0  0  0  0  0  0  0  0  0  0
   25.0910    8.9520   42.2930 C   0  0  0  0  0  0  0  0  0  0  0  0
   24.0980    9.0890   43.2990 C   0  0  0  0  0  0  0  0  0  0  0  0
   22.7490    8.9930   42.9500 C   0  0  0  0  0  0  0  0  0  0  0  0
   20.7460    8.4140   39.8010 C   0  0  0  0  0  0  0  0  0  0  0  0
   21.7970    8.2940   38.8490 C   0  0  0  0  0  0  0  0  0  0  0  0
   23.1300    8.3990   39.2300 C   0  0  0  0  0  0  0  0  0  0  0  0
   21.0320    8.6430   41.1520 C   0  0  0  0  0  0  0  0  0  0  0  0
   18.2440   12.2020   41.4050 C   0  0  0  0  0  0  0  0  0  0  0  0
   17.6970   13.1550   40.4820 C   0  0  0  0  0  0  0  0  0  0  0  0
   17.5550   12.8500   39.1940 N   0  0  0  0  0  0  0  0  0  0  0  0
   18.6020   11.0130   40.9460 N   0  0  0  0  0  0  0  0  0  0  0  0
   18.8030   13.0230   45.6090 C   0  0  0  0  0  0  0  0  0  0  0  0
   18.2330   14.0150   44.7770 C   0  0  0  0  0  0  0  0  0  0  0  0
   18.0440   13.7640   43.4070 C   0  0  0  0  0  0  0  0  0  0  0  0
   18.4250   12.5030   42.8550 C   0  0  0  0  0  0  0  0  0  0  0  0
   18.9940   11.5080   43.7050 C   0  0  0  0  0  0  0  0  0  0  0  0
   19.1810   11.7720   45.0730 C   0  0  0  0  0  0  0  0  0  0  0  0
   18.9870   13.2710   46.9190 F   0  0  0  0  0  0  0  0  0  0  0  0
   18.4470   10.6970   39.5860 N   0  0  0  0  0  0  0  0  0  0  0  0
   17.9180   11.6350   38.7130 C   0  0  0  0  0  0  0  0  0  0  0  0
   17.8920   11.0670   37.5220 N   0  0  0  0  0  0  0  0  0  0  0  0
   18.3600    9.8670   37.6080 N   0  0  0  0  0  0  0  0  0  0  0  0
   18.7120    9.5930   38.8410 C   0  0  0  0  0  0  0  0  0  0  0  0
   19.2990    8.2820   39.3440 C   0  0  0  0  0  0  0  0  0  0  0  0
  2  1  1  0
  6  1  2  0
 10  1  1  0
  3  2  2  0
  9  2  1  0
  4  3  1  0
  5  4  2  0
  6  5  1  0
  8  7  1  0
 10  7  2  0
 27  7  1  0
  9  8  2  0
 12 11  1  0
 14 11  2  0
 18 11  1  0
 13 12  2  0
 23 13  1  0
 22 14  1  0
 16 15  2  0
 20 15  1  0
 21 15  1  0
 17 16  1  0
 18 17  2  0
 19 18  1  0
 20 19  2  0
 23 22  1  0
 26 22  1  0
 24 23  2  0
 25 24  1  0
 26 25  2  0
 27 26  1  0
A    1
C1
A    2
C2
A    3
N3
A    4
C4
A    5
C5
A    6
C6
A    7
C7
A    8
C8
A    9
C9
A   10
C10
A   11
C11
A   12
C12
A   13
N13
A   14
N14
A   15
C15
A   16
C16
A   17
C17
A   18
C18
A   19
C19
A   20
C20
A   21
F21
A   22
N22
A   23
C23
A   24
N24
A   25
N25
A   26
C26
A   27
C27
M  END
>  <Id>  (11) 
3ZBX_6XE_A_2345

>  <ChainId>  (11) 
A

>  <AsymId>  (11) 
B

>  <SeqNum>  (11) 
2345

>  <Name>  (11) 
6-[[6-(4-fluorophenyl)-[1,2,4]triazolo[4,3-b][1,2,4]triazin-3-yl]methyl]quinoline

>  <SystematicName>  (11) 
6-[[6-(4-fluorophenyl)-[1,2,4]triazolo[4,3-b][1,2,4]triazin-3-yl]methyl]quinoline

>  <Synonyms>  (11) 


>  <Type>  (11) 
non-polymer

>  <Formula>  (11) 
C20 H13 F N6

>  <ObservedFormula>  (11) 
C20 F N6

>  <MolecularWeight>  (11) 
356.356

>  <ModifiedDate>  (11) 
2014-09-05

>  <Parent>  (11) 


>  <OneLetterCode>  (11) 


>  <SubcomponentList>  (11) 


>  <AmbiguousFlag>  (11) 
N

>  <InsertionCode>  (11) 


>  <InstanceId>  (11) 
3ZBX_6XE_A_2345

>  <ChemCompId>  (11) 
6XE

>  <PdbId>  (11) 
3ZBX

>  <ResidueNumber>  (11) 
2345

>  <InChI>  (11) 
InChI=1S/C20H13FN6/c21-16-6-4-14(5-7-16)18-12-23-20-25-24-19(27(20)26-18)11-13-3-8-17-15(10-13)2-1-9-22-17/h1-10,12H,11H2

>  <InChIKey>  (11) 
KKIVWQQSFDGQSG-UHFFFAOYSA-N

>  <SMILES>  (11) 
c1cc2cc(ccc2nc1)Cc3nnc4n3nc(cn4)c5ccc(cc5)F

>  <MissingHeavyAtoms>  (11) 
0

>  <Model>  (11) 
1

>  <AltIds>  (11) 


>  <pKI>  (11) 
8.22

>  <ChemblID>  (11) 
CHEMBL2170967

>  <standardized_canonical_smiles>  (11) 
Fc1ccc(-c2cnc3nnc(Cc4ccc5ncccc5c4)n3n2)cc1

$$$$
4AP7_F47_A_2345
     RDKit          3D

 24 27  0  0  0  0  0  0  0  0999 V2000
   18.8220   13.1340   46.6860 F   0  0  0  0  0  0  0  0  0  0  0  0
   18.2260   10.7990   39.2100 N   0  0  0  0  0  0  0  0  0  0  0  0
   17.6670   11.2910   37.2000 N   0  0  0  0  0  0  0  0  0  0  0  0
   18.2290   12.4830   42.6270 C   0  0  0  0  0  0  0  0  0  0  0  0
   17.6270   13.6240   43.2750 C   0  0  0  0  0  0  0  0  0  0  0  0
   17.8580   13.7960   44.6440 C   0  0  0  0  0  0  0  0  0  0  0  0
   18.0370   12.2320   41.1500 C   0  0  0  0  0  0  0  0  0  0  0  0
   17.4940   13.2090   40.2520 C   0  0  0  0  0  0  0  0  0  0  0  0
   17.7020   11.7930   38.4410 C   0  0  0  0  0  0  0  0  0  0  0  0
   20.4960    8.5090   39.4520 C   0  0  0  0  0  0  0  0  0  0  0  0
   22.9390    8.5490   38.9250 C   0  0  0  0  0  0  0  0  0  0  0  0
   17.3410   12.9750   38.9510 N   0  0  0  0  0  0  0  0  0  0  0  0
   22.1990    8.6290   41.2380 C   0  0  0  0  0  0  0  0  0  0  0  0
   21.5880    8.4960   38.4890 C   0  0  0  0  0  0  0  0  0  0  0  0
   23.2720    8.6140   40.2710 C   0  0  0  0  0  0  0  0  0  0  0  0
   24.6220    8.6610   40.6300 O   0  0  0  0  0  0  0  0  0  0  0  0
   20.8020    8.5780   40.8570 C   0  0  0  0  0  0  0  0  0  0  0  0
   19.0900    8.4520   39.0130 C   0  0  0  0  0  0  0  0  0  0  0  0
   18.4950    9.7480   38.4780 C   0  0  0  0  0  0  0  0  0  0  0  0
   18.4010   11.0270   40.6290 N   0  0  0  0  0  0  0  0  0  0  0  0
   18.1660   10.0290   37.2750 N   0  0  0  0  0  0  0  0  0  0  0  0
   19.0280   11.5680   43.3570 C   0  0  0  0  0  0  0  0  0  0  0  0
   19.2490   11.7590   44.7330 C   0  0  0  0  0  0  0  0  0  0  0  0
   18.6410   12.8920   45.3360 C   0  0  0  0  0  0  0  0  0  0  0  0
 24  1  1  0
  9  2  1  0
 19  2  1  0
 20  2  1  0
  9  3  2  0
 21  3  1  0
  5  4  2  0
  7  4  1  0
 22  4  1  0
  6  5  1  0
 24  6  2  0
  8  7  1  0
 20  7  2  0
 12  8  2  0
 12  9  1  0
 14 10  1  0
 17 10  2  0
 18 10  1  0
 14 11  2  0
 15 11  1  0
 15 13  2  0
 17 13  1  0
 16 15  1  0
 19 18  1  0
 21 19  2  0
 23 22  2  0
 24 23  1  0
A    1
F24
A    2
N5
A    3
N7
A    4
C18
A    5
C23
A    6
C22
A    7
C1
A    8
C2
A    9
C6
A   10
C11
A   11
C13
A   12
N3
A   13
C15
A   14
C12
A   15
C14
A   16
O17
A   17
C16
A   18
C10
A   19
C9
A   20
N4
A   21
N8
A   22
C19
A   23
C20
A   24
C21
M  END
>  <Id>  (12) 
4AP7_F47_A_2345

>  <ChainId>  (12) 
A

>  <AsymId>  (12) 
B

>  <SeqNum>  (12) 
2345

>  <Name>  (12) 
4-[[6-(4-fluorophenyl)-[1,2,4]triazolo[4,3-b][1,2,4]triazin-3-yl]methyl]phenol

>  <SystematicName>  (12) 
4-[[6-(4-fluorophenyl)-[1,2,4]triazolo[4,3-b][1,2,4]triazin-3-yl]methyl]phenol

>  <Synonyms>  (12) 


>  <Type>  (12) 
non-polymer

>  <Formula>  (12) 
C17 H12 F N5 O

>  <ObservedFormula>  (12) 
C17 F N5 O

>  <MolecularWeight>  (12) 
321.308

>  <ModifiedDate>  (12) 
2014-09-05

>  <Parent>  (12) 


>  <OneLetterCode>  (12) 


>  <SubcomponentList>  (12) 


>  <AmbiguousFlag>  (12) 
N

>  <InsertionCode>  (12) 


>  <InstanceId>  (12) 
4AP7_F47_A_2345

>  <ChemCompId>  (12) 
F47

>  <PdbId>  (12) 
4AP7

>  <ResidueNumber>  (12) 
2345

>  <InChI>  (12) 
InChI=1S/C17H12FN5O/c18-13-5-3-12(4-6-13)15-10-19-17-21-20-16(23(17)22-15)9-11-1-7-14(24)8-2-11/h1-8,10,24H,9H2

>  <InChIKey>  (12) 
NBRHZLRAQNRJSZ-UHFFFAOYSA-N

>  <SMILES>  (12) 
c1cc(ccc1Cc2nnc3n2nc(cn3)c4ccc(cc4)F)O

>  <MissingHeavyAtoms>  (12) 
0

>  <Model>  (12) 
1

>  <AltIds>  (12) 


>  <pKI>  (12) 
7.96

>  <ChemblID>  (12) 
CHEMBL2170957

>  <standardized_canonical_smiles>  (12) 
Oc1ccc(Cc2nnc3ncc(-c4ccc(F)cc4)nn23)cc1

$$$$
3ZC5_W9Z_A_2345
     RDKit          3D

 27 31  0  0  0  0  0  0  0  0999 V2000
   23.5420   85.9150    5.1940 C   0  0  0  0  0  0  0  0  0  0  0  0
   24.8680   85.8070    4.8700 N   0  0  0  0  0  0  0  0  0  0  0  0
   23.1980   86.0620    6.5600 C   0  0  0  0  0  0  0  0  0  0  0  0
   18.5720   83.8540    6.4710 N   0  0  0  0  0  0  0  0  0  0  0  0
   21.8390   86.1920    6.9630 C   0  0  0  0  0  0  0  0  0  0  0  0
   18.5880   83.5670    5.1940 N   0  0  0  0  0  0  0  0  0  0  0  0
   20.7440   86.1820    6.0140 C   0  0  0  0  0  0  0  0  0  0  0  0
   18.3780   82.2900    1.1570 N   0  0  0  0  0  0  0  0  0  0  0  0
   19.2610   86.3650    6.5320 C   0  0  0  0  0  0  0  0  0  0  0  0
   18.0270   81.0630    1.3950 N   0  0  0  0  0  0  0  0  0  0  0  0
   18.8360   85.0240    7.1440 C   0  0  0  0  0  0  0  0  0  0  0  0
   18.3070   83.5700    8.6150 N   0  0  0  0  0  0  0  0  0  0  0  0
   18.2560   82.2920    4.8290 C   0  0  0  0  0  0  0  0  0  0  0  0
   18.2280   81.9830    3.3710 C   0  0  0  0  0  0  0  0  0  0  0  0
   18.5210   82.9110    2.2770 C   0  0  0  0  0  0  0  0  0  0  0  0
   17.9110   80.7820    2.7540 C   0  0  0  0  0  0  0  0  0  0  0  0
   18.6540   84.8030    8.4100 N   0  0  0  0  0  0  0  0  0  0  0  0
   17.7770   80.0700    0.3510 C   0  0  0  0  0  0  0  0  0  0  0  0
   17.9190   81.2890    5.8060 C   0  0  0  0  0  0  0  0  0  0  0  0
   17.9130   81.6290    7.1920 C   0  0  0  0  0  0  0  0  0  0  0  0
   18.2470   82.9660    7.4830 C   0  0  0  0  0  0  0  0  0  0  0  0
   19.3520   87.4690    7.6100 C   0  0  0  0  0  0  0  0  0  0  0  0
   21.0780   86.0240    4.6220 C   0  0  0  0  0  0  0  0  0  0  0  0
   22.4700   85.8890    4.2070 C   0  0  0  0  0  0  0  0  0  0  0  0
   22.8500   85.7360    2.8360 C   0  0  0  0  0  0  0  0  0  0  0  0
   24.2380   85.6210    2.4990 C   0  0  0  0  0  0  0  0  0  0  0  0
   25.2060   85.6650    3.5510 C   0  0  0  0  0  0  0  0  0  0  0  0
  2  1  2  0
  3  1  1  0
 24  1  1  0
 27  2  1  0
  5  3  2  0
  6  4  1  0
 11  4  1  0
 21  4  1  0
  7  5  1  0
 13  6  2  0
  9  7  1  0
 23  7  2  0
 10  8  1  0
 15  8  2  0
 11  9  1  0
 22  9  1  0
 16 10  1  0
 18 10  1  0
 17 11  2  0
 17 12  1  0
 21 12  2  0
 14 13  1  0
 19 13  1  0
 15 14  1  0
 16 14  2  0
 20 19  2  0
 21 20  1  0
 24 23  1  0
 25 24  2  0
 26 25  1  0
 27 26  2  0
A    1
C1
A    2
N1
A    3
C2
A    4
N2
A    5
C3
A    6
N3
A    7
C4
A    8
N4
A    9
C5
A   10
N5
A   11
C6
A   12
N6
A   13
C7
A   14
C8
A   15
C9
A   16
C10
A   17
N10
A   18
C11
A   19
C12
A   20
C13
A   21
C14
A   22
C15
A   23
C16
A   24
C17
A   25
C18
A   26
C19
A   27
C20
M  END
>  <Id>  (13) 
3ZC5_W9Z_A_2345

>  <ChainId>  (13) 
A

>  <AsymId>  (13) 
B

>  <SeqNum>  (13) 
2345

>  <Name>  (13) 
6-{(1S)-1-[6-(1-methyl-1H-pyrazol-4-yl)[1,2,4]triazolo[4,3-b]pyridazin-3-yl]ethyl}quinoline

>  <SystematicName>  (13) 
6-[(1S)-1-[6-(1-methylpyrazol-4-yl)-[1,2,4]triazolo[4,3-b]pyridazin-3-yl]ethyl]quinoline

>  <Synonyms>  (13) 


>  <Type>  (13) 
NON-POLYMER

>  <Formula>  (13) 
C20 H17 N7

>  <ObservedFormula>  (13) 
C20 N7

>  <MolecularWeight>  (13) 
355.396

>  <ModifiedDate>  (13) 
2013-11-22

>  <Parent>  (13) 


>  <OneLetterCode>  (13) 


>  <SubcomponentList>  (13) 


>  <AmbiguousFlag>  (13) 
N

>  <InsertionCode>  (13) 


>  <InstanceId>  (13) 
3ZC5_W9Z_A_2345

>  <ChemCompId>  (13) 
W9Z

>  <PdbId>  (13) 
3ZC5

>  <ResidueNumber>  (13) 
2345

>  <InChI>  (13) 
InChI=1S/C20H17N7/c1-13(14-5-6-17-15(10-14)4-3-9-21-17)20-24-23-19-8-7-18(25-27(19)20)16-11-22-26(2)12-16/h3-13H,1-2H3/t13-/m0/s1

>  <InChIKey>  (13) 
VQYHPUHKYSSEOB-ZDUSSCGKSA-N

>  <SMILES>  (13) 
C[C@@H](c1ccc2c(c1)cccn2)c3nnc4n3nc(cc4)c5cnn(c5)C

>  <MissingHeavyAtoms>  (13) 
0

>  <Model>  (13) 
1

>  <AltIds>  (13) 


>  <pKI>  (13) 
7.99

>  <ChemblID>  (13) 
CHEMBL2431819

>  <standardized_canonical_smiles>  (13) 
C[C@@H](c1ccc2ncccc2c1)c1nnc2ccc(-c3cnn(C)c3)nn12

$$$$
3ZCL_5TF_A_1
     RDKit          3D

 24 27  0  0  0  0  0  0  0  0999 V2000
   20.2660   82.0660    1.6170 C   0  0  0  0  0  0  0  0  0  0  0  0
   19.6400   82.9450    2.6970 C   0  0  0  0  0  0  0  0  0  0  0  0
   18.7390   83.9990    2.0730 C   0  0  0  0  0  0  0  0  0  0  0  0
   18.8560   82.1120    3.6070 N   0  0  0  0  0  0  0  0  0  0  0  0
   18.6130   82.4170    4.9340 C   0  0  0  0  0  0  0  0  0  0  0  0
   17.9750   81.3380    5.7900 C   0  0  0  0  0  0  0  0  0  0  0  0
   17.7230   81.6030    7.0940 C   0  0  0  0  0  0  0  0  0  0  0  0
   18.0590   82.8750    7.6300 C   0  0  0  0  0  0  0  0  0  0  0  0
   17.9400   83.4130    8.8210 N   0  0  0  0  0  0  0  0  0  0  0  0
   18.4450   84.6960    8.7510 N   0  0  0  0  0  0  0  0  0  0  0  0
   18.8620   84.9140    7.5150 C   0  0  0  0  0  0  0  0  0  0  0  0
   19.4830   86.1620    6.9600 C   0  0  0  0  0  0  0  0  0  0  0  0
   18.8940   87.4150    7.6140 C   0  0  0  0  0  0  0  0  0  0  0  0
   20.9930   86.1060    7.1160 C   0  0  0  0  0  0  0  0  0  0  0  0
   21.7460   86.2200    8.2870 C   0  0  0  0  0  0  0  0  0  0  0  0
   23.0780   86.1120    7.9810 N   0  0  0  0  0  0  0  0  0  0  0  0
   23.2170   85.9280    6.6370 C   0  0  0  0  0  0  0  0  0  0  0  0
   24.4070   85.7810    5.9820 N   0  0  0  0  0  0  0  0  0  0  0  0
   24.2870   85.6090    4.6190 C   0  0  0  0  0  0  0  0  0  0  0  0
   23.0700   85.5790    3.9080 C   0  0  0  0  0  0  0  0  0  0  0  0
   21.8650   85.7380    4.6430 C   0  0  0  0  0  0  0  0  0  0  0  0
   21.9330   85.9190    6.0610 C   0  0  0  0  0  0  0  0  0  0  0  0
   18.6360   83.7850    6.7640 N   0  0  0  0  0  0  0  0  0  0  0  0
   18.9260   83.6050    5.4400 N   0  0  0  0  0  0  0  0  0  0  0  0
  2  1  1  0
  3  2  1  0
  4  2  1  0
  5  4  1  0
  6  5  1  0
 24  5  2  0
  7  6  2  0
  8  7  1  0
  9  8  2  0
 23  8  1  0
 10  9  1  0
 11 10  2  0
 12 11  1  0
 23 11  1  0
 13 12  1  0
 14 12  1  0
 15 14  2  0
 22 14  1  0
 16 15  1  0
 17 16  1  0
 18 17  1  0
 22 17  2  0
 19 18  2  0
 20 19  1  0
 21 20  2  0
 22 21  1  0
 24 23  1  0
A    1
C1
A    2
C2
A    3
C3
A    4
N4
A    5
C5
A    6
C6
A    7
C7
A    8
C8
A    9
N9
A   10
N10
A   11
C11
A   12
C12
A   13
C13
A   14
C14
A   15
C15
A   16
N16
A   17
C17
A   18
N18
A   19
C19
A   20
C20
A   21
C21
A   22
C22
A   23
N23
A   24
N24
M  END
>  <Id>  (14) 
3ZCL_5TF_A_1

>  <ChainId>  (14) 
A

>  <AsymId>  (14) 
B

>  <SeqNum>  (14) 
1

>  <Name>  (14) 
(S)-3-(1-(1H-pyrrolo(2,3-b)pyridin-3-yl)ethyl)-N-isopropyl-(1,2,4)triazolo(4,3-b)pyridazin-6-amine

>  <SystematicName>  (14) 
N-propan-2-yl-3-[(1S)-1-(1H-pyrrolo[2,3-b]pyridin-3-yl)ethyl]-[1,2,4]triazolo[4,3-b]pyridazin-6-amine

>  <Synonyms>  (14) 


>  <Type>  (14) 
non-polymer

>  <Formula>  (14) 
C17 H19 N7

>  <ObservedFormula>  (14) 
C17 N7

>  <MolecularWeight>  (14) 
321.38

>  <ModifiedDate>  (14) 
2014-09-05

>  <Parent>  (14) 


>  <OneLetterCode>  (14) 


>  <SubcomponentList>  (14) 


>  <AmbiguousFlag>  (14) 
N

>  <InsertionCode>  (14) 


>  <InstanceId>  (14) 
3ZCL_5TF_A_1

>  <ChemCompId>  (14) 
5TF

>  <PdbId>  (14) 
3ZCL

>  <ResidueNumber>  (14) 
1

>  <InChI>  (14) 
InChI=1S/C17H19N7/c1-10(2)20-14-6-7-15-21-22-17(24(15)23-14)11(3)13-9-19-16-12(13)5-4-8-18-16/h4-11H,1-3H3,(H,18,19)(H,20,23)/t11-/m0/s1

>  <InChIKey>  (14) 
PUIUZHJXBDSQEZ-NSHDSACASA-N

>  <SMILES>  (14) 
C[C@@H](c1c[nH]c2c1cccn2)c3nnc4n3nc(cc4)NC(C)C

>  <MissingHeavyAtoms>  (14) 
0

>  <Model>  (14) 
1

>  <AltIds>  (14) 


>  <pKI>  (14) 
8.0

>  <ChemblID>  (14) 
CHEMBL2431816

>  <standardized_canonical_smiles>  (14) 
CC(C)Nc1ccc2nnc([C@@H](C)c3c[nH]c4ncccc34)n2n1

$$$$
3ZZE_6XP_A_2345
     RDKit          3D

 25 27  0  0  0  0  0  0  0  0999 V2000
   19.7130    7.1210    8.2550 C   0  0  0  0  0  0  0  0  0  0  0  0
   16.9290    8.1040    7.8770 C   0  0  0  0  0  0  0  0  0  0  0  0
   17.5310    8.4050    5.4870 C   0  0  0  0  0  0  0  0  0  0  0  0
   15.5250    8.1100    7.5120 C   0  0  0  0  0  0  0  0  0  0  0  0
   16.1480    8.4120    5.1220 C   0  0  0  0  0  0  0  0  0  0  0  0
   19.9560    9.5880    7.8300 C   0  0  0  0  0  0  0  0  0  0  0  0
   21.1430   14.8090    1.3270 C   0  0  0  0  0  0  0  0  0  0  0  0
   19.4560    8.2530    7.2430 C   0  0  0  0  0  0  0  0  0  0  0  0
   20.9090   13.6360    4.1290 N   0  0  0  0  0  0  0  0  0  0  0  0
   20.1210   10.4080    5.5880 N   0  0  0  0  0  0  0  0  0  0  0  0
   20.3730   10.5830    6.9720 N   0  0  0  0  0  0  0  0  0  0  0  0
   20.8300   13.1160    6.3960 O   0  0  0  0  0  0  0  0  0  0  0  0
   19.9710    9.7730    9.0510 O   0  0  0  0  0  0  0  0  0  0  0  0
   13.8350    8.2710    5.7940 O   0  0  0  0  0  0  0  0  0  0  0  0
   19.6810    8.9150    2.5140 Cl  0  0  0  0  0  0  0  0  0  0  0  0
   17.9610    8.2510    6.8590 C   0  0  0  0  0  0  0  0  0  0  0  0
   15.1550    8.2650    6.1330 C   0  0  0  0  0  0  0  0  0  0  0  0
   20.5250   12.4290    0.6130 C   0  0  0  0  0  0  0  0  0  0  0  0
   20.1740   11.0110    0.9300 C   0  0  0  0  0  0  0  0  0  0  0  0
   20.3470   11.4960    3.3590 C   0  0  0  0  0  0  0  0  0  0  0  0
   20.7860   13.3760    1.6000 C   0  0  0  0  0  0  0  0  0  0  0  0
   20.3610   11.4340    4.7020 C   0  0  0  0  0  0  0  0  0  0  0  0
   20.0880   10.5640    2.2350 C   0  0  0  0  0  0  0  0  0  0  0  0
   20.7030   12.9230    3.0700 C   0  0  0  0  0  0  0  0  0  0  0  0
   20.7230   12.8080    5.2020 C   0  0  0  0  0  0  0  0  0  0  0  0
  8  1  1  0
  4  2  2  0
 16  2  1  0
  5  3  1  0
 16  3  2  0
 17  4  1  0
 17  5  2  0
  8  6  1  0
 11  6  1  0
 13  6  2  0
 21  7  1  0
 16  8  1  0
 24  9  1  0
 25  9  1  0
 11 10  1  0
 22 10  1  0
 25 12  2  0
 17 14  1  0
 23 15  1  0
 19 18  1  0
 21 18  2  0
 23 19  2  0
 22 20  1  0
 23 20  1  0
 24 20  2  0
 24 21  1  0
 25 22  1  0
A    1
C50
A    2
C2
A    3
C6
A    4
C3
A    5
C5
A    6
C19
A    7
C24
A    8
C20
A    9
N13
A   10
N17
A   11
N18
A   12
O16
A   13
O21
A   14
O22
A   15
CL2
A   16
C1
A   17
C4
A   18
C8
A   19
C7
A   20
C11
A   21
C9
A   22
C15
A   23
C10
A   24
C12
A   25
C14
M  END
>  <Id>  (15) 
3ZZE_6XP_A_2345

>  <ChainId>  (15) 
A

>  <AsymId>  (15) 
B

>  <SeqNum>  (15) 
2345

>  <Name>  (15) 
(2S)-N'-[(3R)-4-chloro-7-methyl-2-oxo-2,3-dihydro-1H-indol-3-yl]-2-(4-hydroxyphenyl)propanehydrazide

>  <SystematicName>  (15) 
(2S)-N'-(4-chloranyl-7-methyl-2-oxidanylidene-1,3-dihydroindol-3-yl)-2-(4-hydroxyphenyl)propanehydrazide

>  <Synonyms>  (15) 


>  <Type>  (15) 
non-polymer

>  <Formula>  (15) 
C18 H18 Cl N3 O3

>  <ObservedFormula>  (15) 
C18 Cl N3 O3

>  <MolecularWeight>  (15) 
359.807

>  <ModifiedDate>  (15) 
2014-09-05

>  <Parent>  (15) 


>  <OneLetterCode>  (15) 


>  <SubcomponentList>  (15) 


>  <AmbiguousFlag>  (15) 
N

>  <InsertionCode>  (15) 


>  <InstanceId>  (15) 
3ZZE_6XP_A_2345

>  <ChemCompId>  (15) 
6XP

>  <PdbId>  (15) 
3ZZE

>  <ResidueNumber>  (15) 
2345

>  <InChI>  (15) 
InChI=1S/C18H18ClN3O3/c1-9-3-8-13(19)14-15(9)20-18(25)16(14)21-22-17(24)10(2)11-4-6-12(23)7-5-11/h3-8,10,16,21,23H,1-2H3,(H,20,25)(H,22,24)/t10-,16?/m0/s1

>  <InChIKey>  (15) 
QYEVTRORXICGHU-VQVVDHBBSA-N

>  <SMILES>  (15) 
Cc1ccc(c2c1NC(=O)C2NNC(=O)[C@@H](C)c3ccc(cc3)O)Cl

>  <MissingHeavyAtoms>  (15) 
0

>  <Model>  (15) 
1

>  <AltIds>  (15) 


>  <pKI>  (15) 
8.89

>  <ChemblID>  (15) 
-

>  <standardized_canonical_smiles>  (15) 
Cc1ccc(Cl)c2c1NC(=O)C2NNC(=O)[C@@H](C)c1ccc(O)cc1

$$$$
4GG7_0J8_A_1401
     RDKit          3D

 36 40  0  0  0  0  0  0  0  0999 V2000
   -1.1340  -17.5870   14.6260 C   0  0  0  0  0  0  0  0  0  0  0  0
   -2.1830  -16.6670   14.4580 C   0  0  0  0  0  0  0  0  0  0  0  0
   -2.1830  -15.4700   15.2310 C   0  0  0  0  0  0  0  0  0  0  0  0
   -1.1740  -15.2470   16.1050 N   0  0  0  0  0  0  0  0  0  0  0  0
   -0.1550  -17.3070   15.5320 N   0  0  0  0  0  0  0  0  0  0  0  0
   -7.6130  -21.1320   10.6350 C   0  0  0  0  0  0  0  0  0  0  0  0
   -8.3850  -22.3020    9.9930 C   0  0  0  0  0  0  0  0  0  0  0  0
   -8.3440  -22.2710    8.5280 N   0  0  0  0  0  0  0  0  0  0  0  0
   -7.4650  -21.2990    7.8570 C   0  0  0  0  0  0  0  0  0  0  0  0
   -6.1630  -20.9220    8.5480 C   0  0  0  0  0  0  0  0  0  0  0  0
   -6.2200  -21.0080   10.0590 C   0  0  0  0  0  0  0  0  0  0  0  0
   -5.5180  -19.8360   10.6480 N   0  0  0  0  0  0  0  0  0  0  0  0
   -4.5130  -19.9020   11.5430 C   0  0  0  0  0  0  0  0  0  0  0  0
   -5.8070  -18.5030   10.3730 N   0  0  0  0  0  0  0  0  0  0  0  0
   -4.9580  -17.7270   11.1050 C   0  0  0  0  0  0  0  0  0  0  0  0
   -4.1340  -18.5970   11.8290 C   0  0  0  0  0  0  0  0  0  0  0  0
   -3.0670  -18.2130   12.8070 C   0  0  0  0  0  0  0  0  0  0  0  0
   -3.1800  -16.9870   13.5200 C   0  0  0  0  0  0  0  0  0  0  0  0
   -2.0040  -19.0810   13.0340 C   0  0  0  0  0  0  0  0  0  0  0  0
   -1.0510  -18.7590   13.9370 N   0  0  0  0  0  0  0  0  0  0  0  0
   -0.2070  -16.1660   16.2400 C   0  0  0  0  0  0  0  0  0  0  0  0
    0.9130  -15.8720   17.2330 C   0  0  0  0  0  0  0  0  0  0  0  0
    1.6070  -16.9680   17.5010 F   0  0  0  0  0  0  0  0  0  0  0  0
    1.6530  -14.9320   16.6790 F   0  0  0  0  0  0  0  0  0  0  0  0
    0.4310  -15.4340   18.3820 F   0  0  0  0  0  0  0  0  0  0  0  0
   -3.2080  -14.4530   15.1020 N   0  0  0  0  0  0  0  0  0  0  0  0
   -2.9850  -13.1760   15.7540 C   0  0  0  0  0  0  0  0  0  0  0  0
   -3.6420  -13.3290   17.1130 C   0  0  0  0  0  0  0  0  0  0  0  0
   -2.8400  -13.4220   18.2530 C   0  0  0  0  0  0  0  0  0  0  0  0
   -5.0570  -13.4400   17.2100 C   0  0  0  0  0  0  0  0  0  0  0  0
   -5.6600  -13.6150   18.4650 C   0  0  0  0  0  0  0  0  0  0  0  0
   -4.8650  -13.7030   19.6110 C   0  0  0  0  0  0  0  0  0  0  0  0
   -3.4490  -13.6060   19.5000 C   0  0  0  0  0  0  0  0  0  0  0  0
   -2.6680  -13.7020   20.6950 N   0  0  0  0  0  0  0  0  0  0  0  0
   -3.2250  -14.2780   21.7150 O   0  0  0  0  0  0  0  0  0  0  0  0
   -1.4380  -13.2260   20.7610 O   0  0  0  0  0  0  0  0  0  0  0  0
  2  1  2  0
  5  1  1  0
 20  1  1  0
  3  2  1  0
 18  2  1  0
  4  3  2  0
 26  3  1  0
 21  4  1  0
 21  5  2  0
  7  6  1  0
 11  6  1  0
  8  7  1  0
  9  8  1  0
 10  9  1  0
 11 10  1  0
 12 11  1  0
 13 12  1  0
 14 12  1  0
 16 13  2  0
 15 14  2  0
 16 15  1  0
 17 16  1  0
 18 17  2  0
 19 17  1  0
 20 19  2  0
 22 21  1  0
 23 22  1  0
 24 22  1  0
 25 22  1  0
 27 26  1  0
 28 27  1  0
 29 28  2  0
 30 28  1  0
 33 29  1  0
 31 30  2  0
 32 31  1  0
 33 32  2  0
 34 33  1  0
 35 34  1  0
 36 34  2  0
M  CHG  2  34   1  35  -1
A    1
C4
A    2
C5
A    3
C6
A    4
N1
A    5
N3
A    6
CAP
A    7
CAN
A    8
NAW
A    9
CAO
A   10
CAQ
A   11
CBG
A   12
NBI
A   13
CAM
A   14
NAT
A   15
CAJ
A   16
CBA
A   17
CAZ
A   18
CAL
A   19
CAI
A   20
NAS
A   21
C2
A   22
CBJ
A   23
FAD
A   24
FAE
A   25
FAC
A   26
NAX
A   27
CAR
A   28
CAY
A   29
CAK
A   30
CAG
A   31
CAF
A   32
CAH
A   33
CBB
A   34
NBH
A   35
OAB
A   36
OAA
M  END
>  <Id>  (16) 
4GG7_0J8_A_1401

>  <ChainId>  (16) 
A

>  <AsymId>  (16) 
B

>  <SeqNum>  (16) 
1401

>  <Name>  (16) 
N-(3-nitrobenzyl)-6-[1-(piperidin-4-yl)-1H-pyrazol-4-yl]-2-(trifluoromethyl)pyrido[2,3-d]pyrimidin-4-amine

>  <SystematicName>  (16) 
N-[(3-nitrophenyl)methyl]-6-(1-piperidin-4-ylpyrazol-4-yl)-2-(trifluoromethyl)pyrido[2,3-d]pyrimidin-4-amine

>  <Synonyms>  (16) 


>  <Type>  (16) 
NON-POLYMER

>  <Formula>  (16) 
C23 H21 F3 N8 O2

>  <ObservedFormula>  (16) 
C23 F3 N8 O2

>  <MolecularWeight>  (16) 
498.46

>  <ModifiedDate>  (16) 
2012-09-28

>  <Parent>  (16) 


>  <OneLetterCode>  (16) 


>  <SubcomponentList>  (16) 


>  <AmbiguousFlag>  (16) 
N

>  <InsertionCode>  (16) 


>  <InstanceId>  (16) 
4GG7_0J8_A_1401

>  <ChemCompId>  (16) 
0J8

>  <PdbId>  (16) 
4GG7

>  <ResidueNumber>  (16) 
1401

>  <InChI>  (16) 
InChI=1S/C23H21F3N8O2/c24-23(25,26)22-31-20(28-10-14-2-1-3-18(8-14)34(35)36)19-9-15(11-29-21(19)32-22)16-12-30-33(13-16)17-4-6-27-7-5-17/h1-3,8-9,11-13,17,27H,4-7,10H2,(H,28,29,31,32)

>  <InChIKey>  (16) 
OIYLUARXJZNDPY-UHFFFAOYSA-N

>  <SMILES>  (16) 
c1cc(cc(c1)[N+](=O)[O-])CNc2c3cc(cnc3nc(n2)C(F)(F)F)c4cnn(c4)C5CCNCC5

>  <MissingHeavyAtoms>  (16) 
0

>  <Model>  (16) 
1

>  <AltIds>  (16) 


>  <pKI>  (16) 
8.2

>  <ChemblID>  (16) 
-

>  <standardized_canonical_smiles>  (16) 
O=[N+]([O-])c1cccc(CNc2nc(C(F)(F)F)nc3ncc(-c4cnn(C5CCNCC5)c4)cc23)c1

$$$$
3F82_353_A_2001
     RDKit          3D

 36 39  0  0  0  0  0  0  0  0999 V2000
    0.9630    0.3810   55.7010 C   0  0  0  0  0  0  0  0  0  0  0  0
   -1.0700    1.5630   56.3390 C   0  0  0  0  0  0  0  0  0  0  0  0
    1.6820    7.6980   57.4590 C   0  0  0  0  0  0  0  0  0  0  0  0
    1.8430    8.8920   58.1500 C   0  0  0  0  0  0  0  0  0  0  0  0
    0.7250   -0.5460   56.7070 C   0  0  0  0  0  0  0  0  0  0  0  0
   -1.3010    0.6360   57.3420 C   0  0  0  0  0  0  0  0  0  0  0  0
   -0.5190   11.2300   58.6730 C   0  0  0  0  0  0  0  0  0  0  0  0
    1.2630    8.9120   55.4060 C   0  0  0  0  0  0  0  0  0  0  0  0
   -1.5180   11.7120   59.5010 C   0  0  0  0  0  0  0  0  0  0  0  0
    0.0590    1.4340   55.5160 C   0  0  0  0  0  0  0  0  0  0  0  0
    1.3910    7.7030   56.0860 C   0  0  0  0  0  0  0  0  0  0  0  0
    1.7140   10.0950   57.4660 C   0  0  0  0  0  0  0  0  0  0  0  0
    0.7780   11.6870   58.8890 C   0  0  0  0  0  0  0  0  0  0  0  0
   -0.4030   -0.4060   57.5130 C   0  0  0  0  0  0  0  0  0  0  0  0
    1.4220   10.1030   56.1030 C   0  0  0  0  0  0  0  0  0  0  0  0
    1.0130   12.5990   59.9220 C   0  0  0  0  0  0  0  0  0  0  0  0
   -0.0540   13.0370   60.7140 C   0  0  0  0  0  0  0  0  0  0  0  0
    0.4350    2.9520   52.2100 C   0  0  0  0  0  0  0  0  0  0  0  0
    0.2210    2.0480   53.1670 C   0  0  0  0  0  0  0  0  0  0  0  0
    0.8070    4.7300   53.8410 C   0  0  0  0  0  0  0  0  0  0  0  0
    0.7330    4.3200   52.5600 C   0  0  0  0  0  0  0  0  0  0  0  0
    0.5680    3.7000   54.9220 C   0  0  0  0  0  0  0  0  0  0  0  0
    1.1230    6.1820   54.1300 C   0  0  0  0  0  0  0  0  0  0  0  0
    1.2330    5.5230   49.1740 C   0  0  0  0  0  0  0  0  0  0  0  0
    1.0480    4.4660   50.2410 C   0  0  0  0  0  0  0  0  0  0  0  0
   -1.3170   12.5960   60.5050 N   0  0  0  0  0  0  0  0  0  0  0  0
    0.2830    2.3940   54.4990 N   0  0  0  0  0  0  0  0  0  0  0  0
    0.1730   13.9550   61.7530 N   0  0  0  0  0  0  0  0  0  0  0  0
    1.2450    6.4480   55.4780 N   0  0  0  0  0  0  0  0  0  0  0  0
    0.6240    4.0170   56.1060 O   0  0  0  0  0  0  0  0  0  0  0  0
    1.2500    7.0050   53.2320 O   0  0  0  0  0  0  0  0  0  0  0  0
    1.8640   11.2810   58.1330 O   0  0  0  0  0  0  0  0  0  0  0  0
    0.9290    5.1590   51.4870 O   0  0  0  0  0  0  0  0  0  0  0  0
   -0.6300   -1.2990   58.4810 F   0  0  0  0  0  0  0  0  0  0  0  0
    1.2960   11.2590   55.4380 F   0  0  0  0  0  0  0  0  0  0  0  0
    2.6150   13.1760   60.2110 Cl  0  0  0  0  0  0  0  0  0  0  0  0
  5  1  2  0
 10  1  1  0
  6  2  1  0
 10  2  2  0
  4  3  2  0
 11  3  1  0
 12  4  1  0
 14  5  1  0
 14  6  2  0
  9  7  2  0
 13  7  1  0
 11  8  2  0
 15  8  1  0
 26  9  1  0
 27 10  1  0
 29 11  1  0
 15 12  2  0
 32 12  1  0
 16 13  2  0
 32 13  1  0
 34 14  1  0
 35 15  1  0
 17 16  1  0
 36 16  1  0
 26 17  2  0
 28 17  1  0
 19 18  2  0
 21 18  1  0
 27 19  1  0
 21 20  2  0
 22 20  1  0
 23 20  1  0
 33 21  1  0
 27 22  1  0
 30 22  2  0
 29 23  1  0
 31 23  2  0
 25 24  1  0
 33 25  1  0
A    1
C1
A    2
C2
A    3
C3
A    4
C4
A    5
C5
A    6
C6
A    7
C7
A    8
C8
A    9
C9
A   10
C10
A   11
C11
A   12
C12
A   13
C13
A   14
C14
A   15
C15
A   16
C16
A   17
C17
A   18
C18
A   19
C19
A   20
C20
A   21
C21
A   22
C22
A   23
C23
A   24
C24
A   25
C25
A   26
N26
A   27
N27
A   28
N28
A   29
N29
A   30
O30
A   31
O31
A   32
O32
A   33
O33
A   34
F34
A   35
F35
A   36
CL36
M  END
>  <Id>  (17) 
3F82_353_A_2001

>  <ChainId>  (17) 
A

>  <AsymId>  (17) 
B

>  <SeqNum>  (17) 
2001

>  <Name>  (17) 
N-{4-[(2-amino-3-chloropyridin-4-yl)oxy]-3-fluorophenyl}-4-ethoxy-1-(4-fluorophenyl)-2-oxo-1,2-dihydropyridine-3-carboxamide

>  <SystematicName>  (17) 
N-[4-(2-amino-3-chloro-pyridin-4-yl)oxy-3-fluoro-phenyl]-4-ethoxy-1-(4-fluorophenyl)-2-oxo-pyridine-3-carboxamide

>  <Synonyms>  (17) 


>  <Type>  (17) 
NON-POLYMER

>  <Formula>  (17) 
C25 H19 Cl F2 N4 O4

>  <ObservedFormula>  (17) 
C25 F2 Cl N4 O4

>  <MolecularWeight>  (17) 
512.893

>  <ModifiedDate>  (17) 
2011-06-04

>  <Parent>  (17) 


>  <OneLetterCode>  (17) 


>  <SubcomponentList>  (17) 


>  <AmbiguousFlag>  (17) 
N

>  <InsertionCode>  (17) 


>  <InstanceId>  (17) 
3F82_353_A_2001

>  <ChemCompId>  (17) 
353

>  <PdbId>  (17) 
3F82

>  <ResidueNumber>  (17) 
2001

>  <InChI>  (17) 
InChI=1S/C25H19ClF2N4O4/c1-2-35-19-10-12-32(16-6-3-14(27)4-7-16)25(34)21(19)24(33)31-15-5-8-18(17(28)13-15)36-20-9-11-30-23(29)22(20)26/h3-13H,2H2,1H3,(H2,29,30)(H,31,33)

>  <InChIKey>  (17) 
VNBRGSXVFBYQNN-UHFFFAOYSA-N

>  <SMILES>  (17) 
CCOC1=C(C(=O)N(C=C1)c2ccc(cc2)F)C(=O)Nc3ccc(c(c3)F)Oc4ccnc(c4Cl)N

>  <MissingHeavyAtoms>  (17) 
0

>  <Model>  (17) 
1

>  <AltIds>  (17) 


>  <pKI>  (17) 
8.34

>  <ChemblID>  (17) 
-

>  <standardized_canonical_smiles>  (17) 
CCOc1ccn(-c2ccc(F)cc2)c(=O)c1C(=O)Nc1ccc(Oc2ccnc(N)c2Cl)c(F)c1

$$$$
6SDD_353_A_1401
     RDKit          3D

 36 39  0  0  0  0  0  0  0  0999 V2000
   -9.5880   -4.7460    7.1810 C   0  0  0  0  0  0  0  0  0  0  0  0
  -11.2320   -6.5110    7.0760 C   0  0  0  0  0  0  0  0  0  0  0  0
  -14.0200   -6.0400   13.1730 C   0  0  0  0  0  0  0  0  0  0  0  0
  -14.4580   -6.5540   14.3830 C   0  0  0  0  0  0  0  0  0  0  0  0
   -8.5980   -5.6440    6.8120 C   0  0  0  0  0  0  0  0  0  0  0  0
  -10.2480   -7.4120    6.7080 C   0  0  0  0  0  0  0  0  0  0  0  0
  -17.1580   -8.3910   15.1180 C   0  0  0  0  0  0  0  0  0  0  0  0
  -15.8280   -4.4460   13.1800 C   0  0  0  0  0  0  0  0  0  0  0  0
  -17.7320   -9.6420   15.2660 C   0  0  0  0  0  0  0  0  0  0  0  0
  -10.9090   -5.1760    7.3180 C   0  0  0  0  0  0  0  0  0  0  0  0
  -14.6980   -4.9870   12.5650 C   0  0  0  0  0  0  0  0  0  0  0  0
  -15.5840   -6.0200   15.0010 C   0  0  0  0  0  0  0  0  0  0  0  0
  -16.6660   -7.7670   16.2590 C   0  0  0  0  0  0  0  0  0  0  0  0
   -8.9560   -6.9540    6.5860 C   0  0  0  0  0  0  0  0  0  0  0  0
  -16.2420   -4.9770   14.3790 C   0  0  0  0  0  0  0  0  0  0  0  0
  -16.7660   -8.4100   17.4970 C   0  0  0  0  0  0  0  0  0  0  0  0
  -17.3650   -9.6770   17.5480 C   0  0  0  0  0  0  0  0  0  0  0  0
  -13.1850   -2.2840    7.1050 C   0  0  0  0  0  0  0  0  0  0  0  0
  -12.2340   -3.1940    6.8320 C   0  0  0  0  0  0  0  0  0  0  0  0
  -13.6570   -3.4660    9.2400 C   0  0  0  0  0  0  0  0  0  0  0  0
  -13.9300   -2.4020    8.3310 C   0  0  0  0  0  0  0  0  0  0  0  0
  -12.6180   -4.4460    8.9290 C   0  0  0  0  0  0  0  0  0  0  0  0
  -14.4480   -3.5370   10.5040 C   0  0  0  0  0  0  0  0  0  0  0  0
  -16.3450   -0.9920    6.6320 C   0  0  0  0  0  0  0  0  0  0  0  0
  -15.2390   -0.4600    7.5050 C   0  0  0  0  0  0  0  0  0  0  0  0
  -17.8430  -10.2850   16.4390 N   0  0  0  0  0  0  0  0  0  0  0  0
  -11.9420   -4.2450    7.6980 N   0  0  0  0  0  0  0  0  0  0  0  0
  -17.4740  -10.3190   18.7140 N   0  0  0  0  0  0  0  0  0  0  0  0
  -14.1340   -4.5740   11.3320 N   0  0  0  0  0  0  0  0  0  0  0  0
  -12.3140   -5.3950    9.6510 O   0  0  0  0  0  0  0  0  0  0  0  0
  -15.3140   -2.7040   10.7640 O   0  0  0  0  0  0  0  0  0  0  0  0
  -16.0680   -6.5060   16.2150 O   0  0  0  0  0  0  0  0  0  0  0  0
  -14.8840   -1.4440    8.5400 O   0  0  0  0  0  0  0  0  0  0  0  0
   -7.9890   -7.8360    6.2240 F   0  0  0  0  0  0  0  0  0  0  0  0
  -17.3370   -4.4630   14.9860 F   0  0  0  0  0  0  0  0  0  0  0  0
  -16.1530   -7.6340   18.9050 Cl  0  0  0  0  0  0  0  0  0  0  0  0
  5  1  2  0
 10  1  1  0
  6  2  1  0
 10  2  2  0
  4  3  2  0
 11  3  1  0
 12  4  1  0
 14  5  1  0
 14  6  2  0
  9  7  2  0
 13  7  1  0
 11  8  2  0
 15  8  1  0
 26  9  1  0
 27 10  1  0
 29 11  1  0
 15 12  2  0
 32 12  1  0
 16 13  2  0
 32 13  1  0
 34 14  1  0
 35 15  1  0
 17 16  1  0
 36 16  1  0
 26 17  2  0
 28 17  1  0
 19 18  2  0
 21 18  1  0
 27 19  1  0
 21 20  2  0
 22 20  1  0
 23 20  1  0
 33 21  1  0
 27 22  1  0
 30 22  2  0
 29 23  1  0
 31 23  2  0
 25 24  1  0
 33 25  1  0
A    1
C1
A    2
C2
A    3
C3
A    4
C4
A    5
C5
A    6
C6
A    7
C7
A    8
C8
A    9
C9
A   10
C10
A   11
C11
A   12
C12
A   13
C13
A   14
C14
A   15
C15
A   16
C16
A   17
C17
A   18
C18
A   19
C19
A   20
C20
A   21
C21
A   22
C22
A   23
C23
A   24
C24
A   25
C25
A   26
N26
A   27
N27
A   28
N28
A   29
N29
A   30
O30
A   31
O31
A   32
O32
A   33
O33
A   34
F34
A   35
F35
A   36
CL36
M  END
>  <Id>  (18) 
6SDD_353_A_1401

>  <ChainId>  (18) 
A

>  <AsymId>  (18) 
B

>  <SeqNum>  (18) 
1401

>  <Name>  (18) 
N-{4-[(2-amino-3-chloropyridin-4-yl)oxy]-3-fluorophenyl}-4-ethoxy-1-(4-fluorophenyl)-2-oxo-1,2-dihydropyridine-3-carboxamide

>  <SystematicName>  (18) 
N-[4-(2-amino-3-chloro-pyridin-4-yl)oxy-3-fluoro-phenyl]-4-ethoxy-1-(4-fluorophenyl)-2-oxo-pyridine-3-carboxamide

>  <Synonyms>  (18) 


>  <Type>  (18) 
NON-POLYMER

>  <Formula>  (18) 
C25 H19 Cl F2 N4 O4

>  <ObservedFormula>  (18) 
C25 F2 Cl N4 O4

>  <MolecularWeight>  (18) 
512.893

>  <ModifiedDate>  (18) 
2011-06-04

>  <Parent>  (18) 


>  <OneLetterCode>  (18) 


>  <SubcomponentList>  (18) 


>  <AmbiguousFlag>  (18) 
N

>  <InsertionCode>  (18) 


>  <InstanceId>  (18) 
6SDD_353_A_1401

>  <ChemCompId>  (18) 
353

>  <PdbId>  (18) 
6SDD

>  <ResidueNumber>  (18) 
1401

>  <InChI>  (18) 
InChI=1S/C25H19ClF2N4O4/c1-2-35-19-10-12-32(16-6-3-14(27)4-7-16)25(34)21(19)24(33)31-15-5-8-18(17(28)13-15)36-20-9-11-30-23(29)22(20)26/h3-13H,2H2,1H3,(H2,29,30)(H,31,33)

>  <InChIKey>  (18) 
VNBRGSXVFBYQNN-UHFFFAOYSA-N

>  <SMILES>  (18) 
CCOC1=C(C(=O)N(C=C1)c2ccc(cc2)F)C(=O)Nc3ccc(c(c3)F)Oc4ccnc(c4Cl)N

>  <MissingHeavyAtoms>  (18) 
0

>  <Model>  (18) 
1

>  <AltIds>  (18) 


>  <pKI>  (18) 
8.34

>  <ChemblID>  (18) 
-

>  <standardized_canonical_smiles>  (18) 
CCOc1ccn(-c2ccc(F)cc2)c(=O)c1C(=O)Nc1ccc(Oc2ccnc(N)c2Cl)c(F)c1

$$$$
3ZXZ_KRW_A_2345
     RDKit          3D

 28 32  0  0  0  0  0  0  0  0999 V2000
   16.3110   78.7530   -1.1750 O   0  0  0  0  0  0  0  0  0  0  0  0
   16.4420   79.6810   -0.1180 C   0  0  0  0  0  0  0  0  0  0  0  0
   17.9130   80.0570    0.0670 C   0  0  0  0  0  0  0  0  0  0  0  0
   18.0880   81.0210    1.1560 N   0  0  0  0  0  0  0  0  0  0  0  0
   17.8610   80.7280    2.5060 C   0  0  0  0  0  0  0  0  0  0  0  0
   18.4760   82.2330    0.9630 N   0  0  0  0  0  0  0  0  0  0  0  0
   18.5500   82.8410    2.0990 C   0  0  0  0  0  0  0  0  0  0  0  0
   18.1620   81.9200    3.1640 C   0  0  0  0  0  0  0  0  0  0  0  0
   18.1100   82.2210    4.6320 C   0  0  0  0  0  0  0  0  0  0  0  0
   18.4760   83.4880    5.0310 N   0  0  0  0  0  0  0  0  0  0  0  0
   18.4140   83.6950    6.3690 C   0  0  0  0  0  0  0  0  0  0  0  0
   18.7100   84.8240    7.1140 N   0  0  0  0  0  0  0  0  0  0  0  0
   18.5060   84.5780    8.3670 N   0  0  0  0  0  0  0  0  0  0  0  0
   18.0910   83.3650    8.5540 N   0  0  0  0  0  0  0  0  0  0  0  0
   18.0220   82.7610    7.2720 C   0  0  0  0  0  0  0  0  0  0  0  0
   17.6500   81.5030    6.9290 N   0  0  0  0  0  0  0  0  0  0  0  0
   17.7020   81.2420    5.5810 C   0  0  0  0  0  0  0  0  0  0  0  0
   19.1850   86.1050    6.5720 C   0  0  0  0  0  0  0  0  0  0  0  0
   20.6520   85.9880    6.1520 C   0  0  0  0  0  0  0  0  0  0  0  0
   21.0080   85.7660    4.7750 C   0  0  0  0  0  0  0  0  0  0  0  0
   22.3790   85.6550    4.3760 C   0  0  0  0  0  0  0  0  0  0  0  0
   22.7600   85.4320    3.0160 C   0  0  0  0  0  0  0  0  0  0  0  0
   24.1460   85.3300    2.6870 C   0  0  0  0  0  0  0  0  0  0  0  0
   25.1060   85.4560    3.7370 C   0  0  0  0  0  0  0  0  0  0  0  0
   24.7620   85.6690    5.0460 N   0  0  0  0  0  0  0  0  0  0  0  0
   23.4380   85.7660    5.3640 C   0  0  0  0  0  0  0  0  0  0  0  0
   23.0740   85.9860    6.7340 C   0  0  0  0  0  0  0  0  0  0  0  0
   21.6990   86.0960    7.1240 C   0  0  0  0  0  0  0  0  0  0  0  0
  2  1  1  0
  3  2  1  0
  4  3  1  0
  5  4  1  0
  6  4  1  0
  8  5  2  0
  7  6  2  0
  8  7  1  0
  9  8  1  0
 10  9  2  0
 17  9  1  0
 11 10  1  0
 12 11  1  0
 15 11  2  0
 13 12  1  0
 18 12  1  0
 14 13  2  0
 15 14  1  0
 16 15  1  0
 17 16  2  0
 19 18  1  0
 20 19  2  0
 28 19  1  0
 21 20  1  0
 22 21  2  0
 26 21  1  0
 23 22  1  0
 24 23  2  0
 25 24  1  0
 26 25  2  0
 27 26  1  0
 28 27  2  0
A    1
O28
A    2
C27
A    3
C26
A    4
N12
A    5
C11
A    6
N13
A    7
C14
A    8
C10
A    9
C1
A   10
N4
A   11
C5
A   12
N9
A   13
N8
A   14
N7
A   15
C6
A   16
N3
A   17
C2
A   18
C
A   19
C16
A   20
C19
A   21
C20
A   22
C25
A   23
C24
A   24
C23
A   25
N22
A   26
C21
A   27
C18
A   28
C17
M  END
>  <Id>  (19) 
3ZXZ_KRW_A_2345

>  <ChainId>  (19) 
A

>  <AsymId>  (19) 
B

>  <SeqNum>  (19) 
2345

>  <Name>  (19) 
2-{4-[1-(QUINOLIN-6-YLMETHYL)-1H-[1,2,3]TRIAZOLO[4,5-B]PYRAZIN-6-YL]-1H-PYRAZOL-1-YL}ETHANOL

>  <SystematicName>  (19) 
2-[4-[3-(quinolin-6-ylmethyl)-[1,2,3]triazolo[4,5-b]pyrazin-5-yl]pyrazol-1-yl]ethanol

>  <Synonyms>  (19) 


>  <Type>  (19) 
non-polymer

>  <Formula>  (19) 
C19 H16 N8 O

>  <ObservedFormula>  (19) 
C19 N8 O

>  <MolecularWeight>  (19) 
372.383

>  <ModifiedDate>  (19) 
2014-09-05

>  <Parent>  (19) 


>  <OneLetterCode>  (19) 


>  <SubcomponentList>  (19) 


>  <AmbiguousFlag>  (19) 
N

>  <InsertionCode>  (19) 


>  <InstanceId>  (19) 
3ZXZ_KRW_A_2345

>  <ChemCompId>  (19) 
KRW

>  <PdbId>  (19) 
3ZXZ

>  <ResidueNumber>  (19) 
2345

>  <InChI>  (19) 
InChI=1S/C19H16N8O/c28-7-6-26-12-15(9-22-26)17-10-21-18-19(23-17)27(25-24-18)11-13-3-4-16-14(8-13)2-1-5-20-16/h1-5,8-10,12,28H,6-7,11H2

>  <InChIKey>  (19) 
PDMUGYOXRHVNMO-UHFFFAOYSA-N

>  <SMILES>  (19) 
c1cc2cc(ccc2nc1)Cn3c4c(ncc(n4)c5cnn(c5)CCO)nn3

>  <MissingHeavyAtoms>  (19) 
0

>  <Model>  (19) 
1

>  <AltIds>  (19) 


>  <pKI>  (19) 
8.33

>  <ChemblID>  (19) 
-

>  <standardized_canonical_smiles>  (19) 
OCCn1cc(-c2cnc3nnn(Cc4ccc5ncccc5c4)c3n2)cn1

$$$$
