3BGZ_VX3_A_314
     RDKit          3D

 24 27  0  0  0  0  0  0  0  0999 V2000
  -16.3530   34.6390    1.3060 O   0  0  0  0  0  0  0  0  0  0  0  0
  -19.4690   37.5860   -1.0230 C   0  0  0  0  0  0  0  0  0  0  0  0
  -22.3520   39.8790   -1.9770 C   0  0  0  0  0  0  0  0  0  0  0  0
  -16.6360   35.5370    2.2610 C   0  0  0  0  0  0  0  0  0  0  0  0
  -15.9970   35.5420    3.3100 O   0  0  0  0  0  0  0  0  0  0  0  0
  -17.6710   36.5480    1.9860 C   0  0  0  0  0  0  0  0  0  0  0  0
  -18.1840   36.6870    0.6720 C   0  0  0  0  0  0  0  0  0  0  0  0
  -17.9570   36.0140   -0.5040 N   0  0  0  0  0  0  0  0  0  0  0  0
  -18.7050   36.5490   -1.5230 C   0  0  0  0  0  0  0  0  0  0  0  0
  -18.6940   36.0300   -2.9150 C   0  0  0  0  0  0  0  0  0  0  0  0
  -19.8780   36.0240   -3.6840 C   0  0  0  0  0  0  0  0  0  0  0  0
  -19.8540   35.5270   -4.9790 C   0  0  0  0  0  0  0  0  0  0  0  0
  -18.6690   35.0290   -5.5120 C   0  0  0  0  0  0  0  0  0  0  0  0
  -17.5040   35.0110   -4.7480 C   0  0  0  0  0  0  0  0  0  0  0  0
  -17.5090   35.5010   -3.4590 C   0  0  0  0  0  0  0  0  0  0  0  0
  -20.3690   38.5260   -1.7500 C   0  0  0  0  0  0  0  0  0  0  0  0
  -21.6090   38.9520   -1.2530 C   0  0  0  0  0  0  0  0  0  0  0  0
  -21.8720   40.4050   -3.1770 C   0  0  0  0  0  0  0  0  0  0  0  0
  -20.6330   40.0140   -3.6680 C   0  0  0  0  0  0  0  0  0  0  0  0
  -19.8850   39.0960   -2.9540 C   0  0  0  0  0  0  0  0  0  0  0  0
  -19.1250   37.6950    0.4060 C   0  0  0  0  0  0  0  0  0  0  0  0
  -19.5470   38.5420    1.4370 C   0  0  0  0  0  0  0  0  0  0  0  0
  -19.0540   38.4060    2.7160 C   0  0  0  0  0  0  0  0  0  0  0  0
  -18.1020   37.4260    2.9930 C   0  0  0  0  0  0  0  0  0  0  0  0
  4  1  2  0
  9  2  2  0
 16  2  1  0
 21  2  1  0
 17  3  2  0
 18  3  1  0
  5  4  1  0
  6  4  1  0
  7  6  2  0
 24  6  1  0
  8  7  1  0
 21  7  1  0
  9  8  1  0
 10  9  1  0
 11 10  2  0
 15 10  1  0
 12 11  1  0
 13 12  2  0
 14 13  1  0
 15 14  2  0
 17 16  1  0
 20 16  2  0
 19 18  2  0
 20 19  1  0
 22 21  2  0
 23 22  1  0
 24 23  2  0
A    1
O2
A    2
C16
A    3
C19
A    4
C3
A    5
O4
A    6
C5
A    7
C6
A    8
N7
A    9
C9
A   10
C10
A   11
C11
A   12
C12
A   13
C13
A   14
C14
A   15
C15
A   16
C17
A   17
C18
A   18
C20
A   19
C21
A   20
C22
A   21
C23
A   22
C24
A   23
C25
A   24
C26
M  END
>  <Id>  (1) 
3BGZ_VX3_A_314

>  <ChainId>  (1) 
A

>  <AsymId>  (1) 
B

>  <SeqNum>  (1) 
314

>  <Name>  (1) 
2,3-diphenyl-1H-indole-7-carboxylic acid

>  <SystematicName>  (1) 
2,3-diphenyl-1H-indole-7-carboxylic acid

>  <Synonyms>  (1) 


>  <Type>  (1) 
NON-POLYMER

>  <Formula>  (1) 
C21 H15 N O2

>  <ObservedFormula>  (1) 
C21 N O2

>  <MolecularWeight>  (1) 
313.349

>  <ModifiedDate>  (1) 
2011-06-04

>  <Parent>  (1) 


>  <OneLetterCode>  (1) 


>  <SubcomponentList>  (1) 


>  <AmbiguousFlag>  (1) 
N

>  <InsertionCode>  (1) 


>  <InstanceId>  (1) 
3BGZ_VX3_A_314

>  <ChemCompId>  (1) 
VX3

>  <PdbId>  (1) 
3BGZ

>  <ResidueNumber>  (1) 
314

>  <InChI>  (1) 
InChI=1S/C21H15NO2/c23-21(24)17-13-7-12-16-18(14-8-3-1-4-9-14)19(22-20(16)17)15-10-5-2-6-11-15/h1-13,22H,(H,23,24)

>  <InChIKey>  (1) 
OLUDUXWVPIEHDA-UHFFFAOYSA-N

>  <SMILES>  (1) 
c1ccc(cc1)c2c3cccc(c3[nH]c2c4ccccc4)C(=O)O

>  <MissingHeavyAtoms>  (1) 
0

>  <Model>  (1) 
1

>  <AltIds>  (1) 


>  <pKI>  (1) 
6.26

>  <ChemblID>  (1) 
CHEMBL406652

>  <standardized_canonical_smiles>  (1) 
O=C(O)c1cccc2c(-c3ccccc3)c(-c3ccccc3)[nH]c12

$$$$
3VC4_0FS_A_1
     RDKit          3D

 18 19  0  0  0  0  0  0  0  0999 V2000
   42.2280   -2.0760   -2.0700 C   0  0  0  0  0  0  0  0  0  0  0  0
   44.5320   -1.8050   -1.6630 C   0  0  0  0  0  0  0  0  0  0  0  0
   43.4780   -1.9430   -2.5870 C   0  0  0  0  0  0  0  0  0  0  0  0
   44.2540   -1.8310   -0.2490 C   0  0  0  0  0  0  0  0  0  0  0  0
   41.9510   -2.1070   -0.5810 C   0  0  0  0  0  0  0  0  0  0  0  0
   42.9630   -1.9660    0.3070 C   0  0  0  0  0  0  0  0  0  0  0  0
   38.5640   -2.9710    1.0700 C   0  0  0  0  0  0  0  0  0  0  0  0
   38.2140   -3.6680    2.4420 N   0  0  0  0  0  0  0  0  0  0  0  0
   39.4200   -3.9290    3.1110 C   0  0  0  0  0  0  0  0  0  0  0  0
   40.6920   -3.3460    2.2420 S   0  0  0  0  0  0  0  0  0  0  0  0
   40.0130   -2.7820    0.9750 C   0  0  0  0  0  0  0  0  0  0  0  0
   45.3830   -1.6550    0.6810 C   0  0  0  0  0  0  0  0  0  0  0  0
   40.5220   -2.2080   -0.1340 C   0  0  0  0  0  0  0  0  0  0  0  0
   37.7210   -2.6470    0.2790 O   0  0  0  0  0  0  0  0  0  0  0  0
   39.4310   -4.4690    4.1850 O   0  0  0  0  0  0  0  0  0  0  0  0
   46.5030   -2.2360    0.2200 F   0  0  0  0  0  0  0  0  0  0  0  0
   45.0540   -2.0310    1.9390 F   0  0  0  0  0  0  0  0  0  0  0  0
   45.5470   -0.3380    0.5690 F   0  0  0  0  0  0  0  0  0  0  0  0
  3  1  2  0
  5  1  1  0
  3  2  1  0
  4  2  2  0
  6  4  1  0
 12  4  1  0
  6  5  2  0
 13  5  1  0
  8  7  1  0
 11  7  1  0
 14  7  2  0
  9  8  1  0
 10  9  1  0
 15  9  2  0
 11 10  1  0
 13 11  2  0
 16 12  1  0
 17 12  1  0
 18 12  1  0
A    1
C01
A    2
C02
A    3
C03
A    4
C04
A    5
C05
A    6
C06
A    7
C07
A    8
N08
A    9
C09
A   10
S10
A   11
C11
A   12
C12
A   13
C13
A   14
O14
A   15
O15
A   16
F16
A   17
F17
A   18
F18
M  END
>  <Id>  (2) 
3VC4_0FS_A_1

>  <ChainId>  (2) 
A

>  <AsymId>  (2) 
C

>  <SeqNum>  (2) 
1

>  <Name>  (2) 
(5Z)-5-[3-(trifluoromethyl)benzylidene]-1,3-thiazolidine-2,4-dione

>  <SystematicName>  (2) 
(5Z)-5-[[3-(trifluoromethyl)phenyl]methylidene]-1,3-thiazolidine-2,4-dione

>  <Synonyms>  (2) 


>  <Type>  (2) 
NON-POLYMER

>  <Formula>  (2) 
C11 H6 F3 N O2 S

>  <ObservedFormula>  (2) 
C11 S F3 N O2

>  <MolecularWeight>  (2) 
273.231

>  <ModifiedDate>  (2) 
2012-03-16

>  <Parent>  (2) 


>  <OneLetterCode>  (2) 


>  <SubcomponentList>  (2) 


>  <AmbiguousFlag>  (2) 
N

>  <InsertionCode>  (2) 


>  <InstanceId>  (2) 
3VC4_0FS_A_1

>  <ChemCompId>  (2) 
0FS

>  <PdbId>  (2) 
3VC4

>  <ResidueNumber>  (2) 
1

>  <InChI>  (2) 
InChI=1S/C11H6F3NO2S/c12-11(13,14)7-3-1-2-6(4-7)5-8-9(16)15-10(17)18-8/h1-5H,(H,15,16,17)/b8-5-

>  <InChIKey>  (2) 
NGJLOFCOEOHFKQ-YVMONPNESA-N

>  <SMILES>  (2) 
c1cc(cc(c1)C(F)(F)F)/C=C\2/C(=O)NC(=O)S2

>  <MissingHeavyAtoms>  (2) 
0

>  <Model>  (2) 
1

>  <AltIds>  (2) 


>  <pKI>  (2) 
7.62

>  <ChemblID>  (2) 
CHEMBL183906

>  <standardized_canonical_smiles>  (2) 
O=C1NC(=O)/C(=C/c2cccc(C(F)(F)F)c2)S1

$$$$
3BGQ_VX2_A_314
     RDKit          3D

 26 29  0  0  0  0  0  0  0  0999 V2000
  -21.5640   39.2750   -0.8230 C   0  0  0  0  0  0  0  0  0  0  0  0
  -16.2310   34.6350    0.9100 N   0  0  0  0  0  0  0  0  0  0  0  0
  -20.6710   39.3180    1.6790 C   0  0  0  0  0  0  0  0  0  0  0  0
  -19.7840   38.8080    2.7170 C   0  0  0  0  0  0  0  0  0  0  0  0
  -18.8380   37.7400    2.4120 C   0  0  0  0  0  0  0  0  0  0  0  0
  -16.3130   34.7450   -0.4160 C   0  0  0  0  0  0  0  0  0  0  0  0
  -15.6650   34.1930   -1.5590 C   0  0  0  0  0  0  0  0  0  0  0  0
  -17.1340   35.6220   -3.0730 C   0  0  0  0  0  0  0  0  0  0  0  0
  -18.7260   36.7960   -4.5320 C   0  0  0  0  0  0  0  0  0  0  0  0
  -20.6350   38.7610    0.3000 C   0  0  0  0  0  0  0  0  0  0  0  0
  -19.6690   37.6890    0.0450 C   0  0  0  0  0  0  0  0  0  0  0  0
  -16.0860   34.6410   -2.8710 C   0  0  0  0  0  0  0  0  0  0  0  0
  -19.4950   39.1950   -4.7490 C   0  0  0  0  0  0  0  0  0  0  0  0
  -17.0520   35.4020    1.6060 N   0  0  0  0  0  0  0  0  0  0  0  0
  -22.8460   39.1240   -0.4020 F   0  0  0  0  0  0  0  0  0  0  0  0
  -21.4520   38.5530   -1.9700 F   0  0  0  0  0  0  0  0  0  0  0  0
  -21.2250   40.5650   -1.0910 F   0  0  0  0  0  0  0  0  0  0  0  0
  -18.7630   37.1610    1.0590 C   0  0  0  0  0  0  0  0  0  0  0  0
  -17.7620   36.1100    0.6880 C   0  0  0  0  0  0  0  0  0  0  0  0
  -17.5350   36.0030   -4.3410 N   0  0  0  0  0  0  0  0  0  0  0  0
  -18.3410   38.2660   -4.4010 C   0  0  0  0  0  0  0  0  0  0  0  0
  -20.1000   38.8660   -6.1070 C   0  0  0  0  0  0  0  0  0  0  0  0
  -20.5320   37.4090   -6.2070 C   0  0  0  0  0  0  0  0  0  0  0  0
  -19.3900   36.4560   -5.8840 C   0  0  0  0  0  0  0  0  0  0  0  0
  -17.7050   36.1100   -1.9040 N   0  0  0  0  0  0  0  0  0  0  0  0
  -17.3310   35.7150   -0.5950 N   0  0  0  0  0  0  0  0  0  0  0  0
 10  1  1  0
 15  1  1  0
 16  1  1  0
 17  1  1  0
  6  2  2  0
 14  2  1  0
  4  3  2  0
 10  3  1  0
  5  4  1  0
 18  5  2  0
  7  6  1  0
 26  6  1  0
 12  7  2  0
 12  8  1  0
 20  8  1  0
 25  8  2  0
 20  9  1  0
 21  9  1  0
 24  9  1  0
 11 10  2  0
 18 11  1  0
 21 13  1  0
 22 13  1  0
 19 14  2  0
 19 18  1  0
 26 19  1  0
 23 22  1  0
 24 23  1  0
 26 25  1  0
A    1
C1
A    2
N2
A    3
C3
A    4
C4
A    5
C5
A    6
C9
A    7
C10
A    8
C12
A    9
C13
A   10
C2
A   11
C7
A   12
C11
A   13
C15
A   14
N1
A   15
F1
A   16
F2
A   17
F3
A   18
C6
A   19
C8
A   20
N3
A   21
C14
A   22
C16
A   23
C17
A   24
C18
A   25
N4
A   26
N5
M  END
>  <Id>  (3) 
3BGQ_VX2_A_314

>  <ChainId>  (3) 
A

>  <AsymId>  (3) 
B

>  <SeqNum>  (3) 
314

>  <Name>  (3) 
N-cyclohexyl-3-[3-(trifluoromethyl)phenyl][1,2,4]triazolo[4,3-b]pyridazin-6-amine

>  <SystematicName>  (3) 
N-cyclohexyl-3-[3-(trifluoromethyl)phenyl]-[1,2,4]triazolo[3,4-f]pyridazin-6-amine

>  <Synonyms>  (3) 


>  <Type>  (3) 
NON-POLYMER

>  <Formula>  (3) 
C18 H18 F3 N5

>  <ObservedFormula>  (3) 
C18 F3 N5

>  <MolecularWeight>  (3) 
361.364

>  <ModifiedDate>  (3) 
2011-06-04

>  <Parent>  (3) 


>  <OneLetterCode>  (3) 


>  <SubcomponentList>  (3) 


>  <AmbiguousFlag>  (3) 
N

>  <InsertionCode>  (3) 


>  <InstanceId>  (3) 
3BGQ_VX2_A_314

>  <ChemCompId>  (3) 
VX2

>  <PdbId>  (3) 
3BGQ

>  <ResidueNumber>  (3) 
314

>  <InChI>  (3) 
InChI=1S/C18H18F3N5/c19-18(20,21)13-6-4-5-12(11-13)17-24-23-16-10-9-15(25-26(16)17)22-14-7-2-1-3-8-14/h4-6,9-11,14H,1-3,7-8H2,(H,22,25)

>  <InChIKey>  (3) 
XYYDXQCAYXOGQT-UHFFFAOYSA-N

>  <SMILES>  (3) 
c1cc(cc(c1)C(F)(F)F)c2nnc3n2nc(cc3)NC4CCCCC4

>  <MissingHeavyAtoms>  (3) 
0

>  <Model>  (3) 
1

>  <AltIds>  (3) 


>  <pKI>  (3) 
7.96

>  <ChemblID>  (3) 
CHEMBL494360

>  <standardized_canonical_smiles>  (3) 
FC(F)(F)c1cccc(-c2nnc3ccc(NC4CCCCC4)nn23)c1

$$$$
3JY0_LYG_A_1000
     RDKit          3D

 22 25  0  0  0  0  0  0  0  0999 V2000
  -37.6130   -5.4470    4.2080 C   0  0  0  0  0  0  0  0  0  0  0  0
  -37.6470   -3.5830    2.9950 N   0  0  0  0  0  0  0  0  0  0  0  0
  -36.5630   -6.2880    3.7830 O   0  0  0  0  0  0  0  0  0  0  0  0
  -41.3380   -2.9260   -2.6070 S   0  0  0  0  0  0  0  0  0  0  0  0
  -45.6760   -1.0860    1.0960 Cl  0  0  0  0  0  0  0  0  0  0  0  0
  -36.8330   -4.2930    4.8730 C   0  0  0  0  0  0  0  0  0  0  0  0
  -40.1570   -2.3540    1.0210 N   0  0  0  0  0  0  0  0  0  0  0  0
  -38.2560   -3.6080   -2.3870 O   0  0  0  0  0  0  0  0  0  0  0  0
  -36.2680   -3.5870    3.6200 C   0  0  0  0  0  0  0  0  0  0  0  0
  -38.2250   -3.1170   -0.1740 N   0  0  0  0  0  0  0  0  0  0  0  0
  -38.0070   -2.5050    2.0840 C   0  0  0  0  0  0  0  0  0  0  0  0
  -38.9010   -2.6680    0.9240 C   0  0  0  0  0  0  0  0  0  0  0  0
  -40.8560   -2.4830   -0.1790 C   0  0  0  0  0  0  0  0  0  0  0  0
  -42.2420   -2.1910   -0.3700 C   0  0  0  0  0  0  0  0  0  0  0  0
  -43.1680   -1.7470    0.5270 C   0  0  0  0  0  0  0  0  0  0  0  0
  -44.4390   -1.5930    0.0040 C   0  0  0  0  0  0  0  0  0  0  0  0
  -44.8330   -1.8330   -1.2860 C   0  0  0  0  0  0  0  0  0  0  0  0
  -43.9080   -2.2520   -2.2090 C   0  0  0  0  0  0  0  0  0  0  0  0
  -42.6660   -2.4160   -1.6790 C   0  0  0  0  0  0  0  0  0  0  0  0
  -40.2130   -2.8950   -1.3070 C   0  0  0  0  0  0  0  0  0  0  0  0
  -38.8430   -3.2530   -1.3820 C   0  0  0  0  0  0  0  0  0  0  0  0
  -38.1900   -4.9650    2.8720 C   0  0  0  0  0  0  0  0  0  0  0  0
  3  1  1  0
  6  1  1  0
 22  1  1  0
  9  2  1  0
 11  2  1  0
 22  2  1  0
 19  4  1  0
 20  4  1  0
 16  5  1  0
  9  6  1  0
 12  7  2  0
 13  7  1  0
 21  8  2  0
 12 10  1  0
 21 10  1  0
 12 11  1  0
 14 13  1  0
 20 13  2  0
 15 14  1  0
 19 14  2  0
 16 15  2  0
 17 16  1  0
 18 17  2  0
 19 18  1  0
 21 20  1  0
A    1
C1
A    2
N1
A    3
O1
A    4
S1
A    5
CL1
A    6
C2
A    7
N2
A    8
O2
A    9
C3
A   10
N3
A   11
C4
A   12
C5
A   13
C6
A   14
C7
A   15
C8
A   16
C9
A   17
C10
A   18
C11
A   19
C12
A   20
C13
A   21
C14
A   22
C15
M  END
>  <Id>  (4) 
3JY0_LYG_A_1000

>  <ChainId>  (4) 
A

>  <AsymId>  (4) 
B

>  <SeqNum>  (4) 
1000

>  <Name>  (4) 
8-chloro-2-{[(3S)-3-hydroxypyrrolidin-1-yl]methyl}[1]benzothieno[3,2-d]pyrimidin-4(3H)-one

>  <SystematicName>  (4) 
8-chloro-2-[[(1S,3S)-3-hydroxypyrrolidin-1-yl]methyl]-3H-[1]benzothiolo[3,2-d]pyrimidin-4-one

>  <Synonyms>  (4) 


>  <Type>  (4) 
NON-POLYMER

>  <Formula>  (4) 
C15 H14 Cl N3 O2 S

>  <ObservedFormula>  (4) 
C15 S Cl N3 O2

>  <MolecularWeight>  (4) 
335.809

>  <ModifiedDate>  (4) 
2011-06-04

>  <Parent>  (4) 


>  <OneLetterCode>  (4) 


>  <SubcomponentList>  (4) 


>  <AmbiguousFlag>  (4) 
N

>  <InsertionCode>  (4) 


>  <InstanceId>  (4) 
3JY0_LYG_A_1000

>  <ChemCompId>  (4) 
LYG

>  <PdbId>  (4) 
3JY0

>  <ResidueNumber>  (4) 
1000

>  <InChI>  (4) 
InChI=1S/C15H14ClN3O2S/c16-8-1-2-11-10(5-8)13-14(22-11)15(21)18-12(17-13)7-19-4-3-9(20)6-19/h1-2,5,9,20H,3-4,6-7H2,(H,17,18,21)/t9-/m0/s1

>  <InChIKey>  (4) 
DSUSQUXNJRQJMI-VIFPVBQESA-N

>  <SMILES>  (4) 
c1cc2c(cc1Cl)c3c(s2)C(=O)NC(=N3)C[N@@]4CC[C@@H](C4)O

>  <MissingHeavyAtoms>  (4) 
0

>  <Model>  (4) 
1

>  <AltIds>  (4) 


>  <pKI>  (4) 
8.3

>  <ChemblID>  (4) 
CHEMBL572513

>  <standardized_canonical_smiles>  (4) 
O=c1nc(CN2CC[C@H](O)C2)[nH]c2c1sc1ccc(Cl)cc12

$$$$
3JXW_LXG_A_1000
     RDKit          3D

 23 26  0  0  0  0  0  0  0  0999 V2000
  -23.8040  -30.7810   -2.2150 C   0  0  0  0  0  0  0  0  0  0  0  0
  -22.3860  -30.7450   -2.6910 N   0  0  0  0  0  0  0  0  0  0  0  0
  -22.1930  -31.5690    2.5440 O   0  0  0  0  0  0  0  0  0  0  0  0
  -23.1440  -34.5910    2.5860 S   0  0  0  0  0  0  0  0  0  0  0  0
  -21.8330  -29.4130   -3.0940 C   0  0  0  0  0  0  0  0  0  0  0  0
  -22.1860  -33.5700   -1.0310 N   0  0  0  0  0  0  0  0  0  0  0  0
  -21.3750  -31.6060   -2.0380 C   0  0  0  0  0  0  0  0  0  0  0  0
  -21.7900  -31.6270    0.2900 N   0  0  0  0  0  0  0  0  0  0  0  0
  -21.8280  -32.3440   -0.8610 C   0  0  0  0  0  0  0  0  0  0  0  0
  -22.5990  -34.2130    0.1530 C   0  0  0  0  0  0  0  0  0  0  0  0
  -23.0350  -35.5720    0.2340 C   0  0  0  0  0  0  0  0  0  0  0  0
  -23.1460  -36.5070   -0.7790 C   0  0  0  0  0  0  0  0  0  0  0  0
  -23.6160  -37.7740   -0.4540 C   0  0  0  0  0  0  0  0  0  0  0  0
  -23.7640  -38.8040   -1.5420 C   0  0  0  0  0  0  0  0  0  0  0  0
  -24.1970  -38.3980   -2.7600 C   0  0  0  0  0  0  0  0  0  0  0  0
  -24.4620  -39.0820   -4.0390 C   0  0  0  0  0  0  0  0  0  0  0  0
  -25.2410  -38.3800   -5.1440 C   0  0  0  0  0  0  0  0  0  0  0  0
  -23.7730  -38.6160   -5.2980 C   0  0  0  0  0  0  0  0  0  0  0  0
  -23.9480  -38.0730    0.8640 C   0  0  0  0  0  0  0  0  0  0  0  0
  -23.8420  -37.1700    1.9080 C   0  0  0  0  0  0  0  0  0  0  0  0
  -23.3810  -35.9290    1.5360 C   0  0  0  0  0  0  0  0  0  0  0  0
  -22.5960  -33.5390    1.3380 C   0  0  0  0  0  0  0  0  0  0  0  0
  -22.1910  -32.1800    1.4910 C   0  0  0  0  0  0  0  0  0  0  0  0
  2  1  1  0
  5  2  1  0
  7  2  1  0
 23  3  2  0
 21  4  1  0
 22  4  1  0
  9  6  2  0
 10  6  1  0
  9  7  1  0
  9  8  1  0
 23  8  1  0
 11 10  1  0
 22 10  2  0
 12 11  1  0
 21 11  2  0
 13 12  2  0
 14 13  1  0
 19 13  1  0
 15 14  2  0
 16 15  1  0
 17 16  1  0
 18 16  1  0
 18 17  1  0
 20 19  2  0
 21 20  1  0
 23 22  1  0
A    1
C1
A    2
N1
A    3
O1
A    4
S1
A    5
C2
A    6
N2
A    7
C3
A    8
N3
A    9
C4
A   10
C5
A   11
C6
A   12
C7
A   13
C8
A   14
C9
A   15
C10
A   16
C11
A   17
C12
A   18
C13
A   19
C14
A   20
C15
A   21
C16
A   22
C17
A   23
C18
M  END
>  <Id>  (5) 
3JXW_LXG_A_1000

>  <ChainId>  (5) 
A

>  <AsymId>  (5) 
B

>  <SeqNum>  (5) 
1000

>  <Name>  (5) 
8-[(E)-2-cyclopropylethenyl]-2-[(dimethylamino)methyl][1]benzothieno[3,2-d]pyrimidin-4(3H)-one

>  <SystematicName>  (5) 
8-[(E)-2-cyclopropylethenyl]-2-(dimethylaminomethyl)-3H-[1]benzothiolo[3,2-d]pyrimidin-4-one

>  <Synonyms>  (5) 


>  <Type>  (5) 
NON-POLYMER

>  <Formula>  (5) 
C18 H19 N3 O S

>  <ObservedFormula>  (5) 
C18 S N3 O

>  <MolecularWeight>  (5) 
325.428

>  <ModifiedDate>  (5) 
2011-06-04

>  <Parent>  (5) 


>  <OneLetterCode>  (5) 


>  <SubcomponentList>  (5) 


>  <AmbiguousFlag>  (5) 
N

>  <InsertionCode>  (5) 


>  <InstanceId>  (5) 
3JXW_LXG_A_1000

>  <ChemCompId>  (5) 
LXG

>  <PdbId>  (5) 
3JXW

>  <ResidueNumber>  (5) 
1000

>  <InChI>  (5) 
InChI=1S/C18H19N3OS/c1-21(2)10-15-19-16-13-9-12(6-5-11-3-4-11)7-8-14(13)23-17(16)18(22)20-15/h5-9,11H,3-4,10H2,1-2H3,(H,19,20,22)/b6-5+

>  <InChIKey>  (5) 
CPHAAKSWOQSYIW-AATRIKPKSA-N

>  <SMILES>  (5) 
CN(C)CC1=Nc2c3cc(ccc3sc2C(=O)N1)/C=C/C4CC4

>  <MissingHeavyAtoms>  (5) 
0

>  <Model>  (5) 
1

>  <AltIds>  (5) 


>  <pKI>  (5) 
9.0

>  <ChemblID>  (5) 
CHEMBL576387

>  <standardized_canonical_smiles>  (5) 
CN(C)Cc1nc(=O)c2sc3ccc(/C=C/C4CC4)cc3c2[nH]1

$$$$
3JYA_LWG_A_1000
     RDKit          3D

 16 18  0  0  0  0  0  0  0  0999 V2000
    9.0290   81.3600   -1.2340 C   0  0  0  0  0  0  0  0  0  0  0  0
    9.9220   81.3140   -0.2000 N   0  0  0  0  0  0  0  0  0  0  0  0
    9.2720   81.1030   -2.4030 O   0  0  0  0  0  0  0  0  0  0  0  0
    6.4060   81.9310   -1.7400 S   0  0  0  0  0  0  0  0  0  0  0  0
    3.3440   82.6020   -2.0740 Cl  0  0  0  0  0  0  0  0  0  0  0  0
    9.6000   81.6150    1.1010 C   0  0  0  0  0  0  0  0  0  0  0  0
    8.4500   81.9850    1.5720 N   0  0  0  0  0  0  0  0  0  0  0  0
    6.3490   82.8480    3.4260 Cl  0  0  0  0  0  0  0  0  0  0  0  0
    7.4770   82.0590    0.5700 C   0  0  0  0  0  0  0  0  0  0  0  0
    7.7730   81.7580   -0.7340 C   0  0  0  0  0  0  0  0  0  0  0  0
    5.4250   82.3980   -0.4130 C   0  0  0  0  0  0  0  0  0  0  0  0
    4.0920   82.7020   -0.5170 C   0  0  0  0  0  0  0  0  0  0  0  0
    3.4340   83.0620    0.6360 C   0  0  0  0  0  0  0  0  0  0  0  0
    4.1070   83.1130    1.8410 C   0  0  0  0  0  0  0  0  0  0  0  0
    5.4450   82.8000    1.9380 C   0  0  0  0  0  0  0  0  0  0  0  0
    6.1260   82.4310    0.7890 C   0  0  0  0  0  0  0  0  0  0  0  0
  2  1  1  0
  3  1  2  0
 10  1  1  0
  6  2  1  0
 10  4  1  0
 11  4  1  0
 12  5  1  0
  7  6  2  0
  9  7  1  0
 15  8  1  0
 10  9  2  0
 16  9  1  0
 12 11  2  0
 16 11  1  0
 13 12  1  0
 14 13  2  0
 15 14  1  0
 16 15  2  0
A    1
C1
A    2
N1
A    3
O1
A    4
S1
A    5
CL1
A    6
C2
A    7
N2
A    8
CL2
A    9
C3
A   10
C4
A   11
C5
A   12
C6
A   13
C7
A   14
C8
A   15
C9
A   16
C10
M  END
>  <Id>  (6) 
3JYA_LWG_A_1000

>  <ChainId>  (6) 
A

>  <AsymId>  (6) 
B

>  <SeqNum>  (6) 
1000

>  <Name>  (6) 
6,9-dichloro[1]benzothieno[3,2-d]pyrimidin-4(3H)-one

>  <SystematicName>  (6) 
6,9-dichloro-3H-[1]benzothiolo[3,2-d]pyrimidin-4-one

>  <Synonyms>  (6) 


>  <Type>  (6) 
NON-POLYMER

>  <Formula>  (6) 
C10 H4 Cl2 N2 O S

>  <ObservedFormula>  (6) 
C10 S Cl2 N2 O

>  <MolecularWeight>  (6) 
271.123

>  <ModifiedDate>  (6) 
2011-06-04

>  <Parent>  (6) 


>  <OneLetterCode>  (6) 


>  <SubcomponentList>  (6) 


>  <AmbiguousFlag>  (6) 
N

>  <InsertionCode>  (6) 


>  <InstanceId>  (6) 
3JYA_LWG_A_1000

>  <ChemCompId>  (6) 
LWG

>  <PdbId>  (6) 
3JYA

>  <ResidueNumber>  (6) 
1000

>  <InChI>  (6) 
InChI=1S/C10H4Cl2N2OS/c11-4-1-2-5(12)8-6(4)7-9(16-8)10(15)14-3-13-7/h1-3H,(H,13,14,15)

>  <InChIKey>  (6) 
DJUSDFVEBBYFFL-UHFFFAOYSA-N

>  <SMILES>  (6) 
c1cc(c2c(c1Cl)c3c(s2)C(=O)NC=N3)Cl

>  <MissingHeavyAtoms>  (6) 
0

>  <Model>  (6) 
1

>  <AltIds>  (6) 


>  <pKI>  (6) 
6.9

>  <ChemblID>  (6) 
CHEMBL583144

>  <standardized_canonical_smiles>  (6) 
O=c1nc[nH]c2c1sc1c(Cl)ccc(Cl)c12

$$$$
2J2I_LY4_B_1307
     RDKit          3D

 35 40  0  0  0  0  0  0  0  0999 V2000
   39.4820   -1.7760   -2.1850 C   0  0  0  0  0  0  0  0  0  0  0  0
   39.8820   -0.5500   -1.3140 C   0  0  0  0  0  0  0  0  0  0  0  0
   40.2160   -1.0350    0.0250 N   0  0  0  0  0  0  0  0  0  0  0  0
   41.4520   -0.8920    0.4710 C   0  0  0  0  0  0  0  0  0  0  0  0
   39.4810   -1.6790    0.9410 C   0  0  0  0  0  0  0  0  0  0  0  0
   38.1440   -2.0850    0.9720 C   0  0  0  0  0  0  0  0  0  0  0  0
   37.6190   -2.7500    2.0880 C   0  0  0  0  0  0  0  0  0  0  0  0
   38.4470   -3.0050    3.1720 C   0  0  0  0  0  0  0  0  0  0  0  0
   39.7830   -2.6070    3.1360 C   0  0  0  0  0  0  0  0  0  0  0  0
   40.3040   -1.9490    2.0160 C   0  0  0  0  0  0  0  0  0  0  0  0
   41.5540   -1.4300    1.6900 C   0  0  0  0  0  0  0  0  0  0  0  0
   42.7680   -1.4370    2.3840 C   0  0  0  0  0  0  0  0  0  0  0  0
   43.0160   -1.4260    3.7620 C   0  0  0  0  0  0  0  0  0  0  0  0
   42.1820   -1.3600    4.6650 O   0  0  0  0  0  0  0  0  0  0  0  0
   44.3000   -1.4830    4.0100 N   0  0  0  0  0  0  0  0  0  0  0  0
   44.9270   -1.5300    2.8610 C   0  0  0  0  0  0  0  0  0  0  0  0
   46.1480   -1.5960    2.8010 O   0  0  0  0  0  0  0  0  0  0  0  0
   44.0380   -1.5220    1.7820 C   0  0  0  0  0  0  0  0  0  0  0  0
   44.3450   -1.6070    0.4060 C   0  0  0  0  0  0  0  0  0  0  0  0
   43.6980   -2.4510   -0.4230 C   0  0  0  0  0  0  0  0  0  0  0  0
   45.3420   -1.0090   -0.3660 C   0  0  0  0  0  0  0  0  0  0  0  0
   46.3380   -0.0810   -0.0800 C   0  0  0  0  0  0  0  0  0  0  0  0
   47.1950    0.3710   -1.0810 C   0  0  0  0  0  0  0  0  0  0  0  0
   47.0720   -0.1240   -2.3750 C   0  0  0  0  0  0  0  0  0  0  0  0
   46.0880   -1.0600   -2.6600 C   0  0  0  0  0  0  0  0  0  0  0  0
   45.2170   -1.5040   -1.6590 C   0  0  0  0  0  0  0  0  0  0  0  0
   44.2090   -2.3790   -1.6710 N   0  0  0  0  0  0  0  0  0  0  0  0
   43.6440   -3.2130   -2.7510 C   0  0  0  0  0  0  0  0  0  0  0  0
   42.8350   -2.4430   -3.7930 C   0  0  0  0  0  0  0  0  0  0  0  0
   41.6180   -1.7990   -3.3130 O   0  0  0  0  0  0  0  0  0  0  0  0
   40.6500   -2.6440   -2.7140 C   0  0  0  0  0  0  0  0  0  0  0  0
   40.1710   -3.7160   -3.7590 C   0  0  0  0  0  0  0  0  0  0  0  0
   38.7390   -4.0420   -3.5440 N   0  0  0  0  0  0  0  0  0  0  0  0
   38.5660   -4.9020   -2.3450 C   0  0  0  0  0  0  0  0  0  0  0  0
   38.1140   -4.6790   -4.7250 C   0  0  0  0  0  0  0  0  0  0  0  0
  2  1  1  0
 31  1  1  0
  3  2  1  0
  4  3  1  0
  5  3  1  0
 11  4  2  0
  6  5  1  0
 10  5  2  0
  7  6  2  0
  8  7  1  0
  9  8  2  0
 10  9  1  0
 11 10  1  0
 12 11  1  0
 13 12  1  0
 18 12  2  0
 14 13  2  0
 15 13  1  0
 16 15  1  0
 17 16  2  0
 18 16  1  0
 19 18  1  0
 20 19  2  0
 21 19  1  0
 27 20  1  0
 22 21  1  0
 26 21  2  0
 23 22  2  0
 24 23  1  0
 25 24  2  0
 26 25  1  0
 27 26  1  0
 28 27  1  0
 29 28  1  0
 30 29  1  0
 31 30  1  0
 32 31  1  0
 33 32  1  0
 34 33  1  0
 35 33  1  0
A    1
CBD
A    2
CBB
A    3
NAW
A    4
CAV
A    5
CAX
A    6
CAY
A    7
CAZ
A    8
CAP
A    9
CAO
A   10
CAN
A   11
CAM
A   12
CAH
A   13
CAE
A   14
OAF
A   15
NAD
A   16
CAC
A   17
OAB
A   18
CAG
A   19
CAL
A   20
CAU
A   21
CAK
A   22
CAJ
A   23
CAI
A   24
CAQ
A   25
CAR
A   26
CAS
A   27
NAT
A   28
CBA
A   29
CBC
A   30
OBE
A   31
CBF
A   32
CBG
A   33
NBH
A   34
CBI
A   35
CBJ
M  END
>  <Id>  (7) 
2J2I_LY4_B_1307

>  <ChainId>  (7) 
B

>  <AsymId>  (7) 
C

>  <SeqNum>  (7) 
1307

>  <Name>  (7) 
(9R)-9-[(DIMETHYLAMINO)METHYL]-6,7,10,11-TETRAHYDRO-9H,18H-5,21:12,17-DIMETHENODIBENZO[E,K]PYRROLO[3,4-H][1,4,13]OXADIAZACYCLOHEXADECINE-18,20-DIONE

>  <SystematicName>  (7) 
null

>  <Synonyms>  (7) 
LY333531

>  <Type>  (7) 
NON-POLYMER

>  <Formula>  (7) 
C28 H28 N4 O3

>  <ObservedFormula>  (7) 
C28 N4 O3

>  <MolecularWeight>  (7) 
468.547

>  <ModifiedDate>  (7) 
2011-06-04

>  <Parent>  (7) 


>  <OneLetterCode>  (7) 


>  <SubcomponentList>  (7) 


>  <AmbiguousFlag>  (7) 
N

>  <InsertionCode>  (7) 


>  <InstanceId>  (7) 
2J2I_LY4_B_1307

>  <ChemCompId>  (7) 
LY4

>  <PdbId>  (7) 
2J2I

>  <ResidueNumber>  (7) 
1307

>  <InChI>  (7) 
InChI=1S/C28H28N4O3/c1-30(2)15-18-11-12-31-16-21(19-7-3-5-9-23(19)31)25-26(28(34)29-27(25)33)22-17-32(13-14-35-18)24-10-6-4-8-20(22)24/h3-10,16-18H,11-15H2,1-2H3,(H,29,33,34)/t18-/m0/s1

>  <InChIKey>  (7) 
ZCBUQCWBWNUWSU-SFHVURJKSA-N

>  <SMILES>  (7) 
CN(C)C[C@@H]1CCn2cc(c3c2cccc3)C4=C(c5cn(c6c5cccc6)CCO1)C(=O)NC4=O

>  <MissingHeavyAtoms>  (7) 
0

>  <Model>  (7) 
1

>  <AltIds>  (7) 


>  <pKI>  (7) 
7.7

>  <ChemblID>  (7) 
CHEMBL360847

>  <standardized_canonical_smiles>  (7) 
CN(C)CC1CCn2cc(c3ccccc32)C2=C(C(=O)NC2=O)c2cn(c3ccccc23)CCO1

$$$$
1YHS_STU_A_306
     RDKit          3D

 35 42  0  0  0  0  0  0  0  0999 V2000
  -19.4280   36.1510   -4.0800 O   0  0  0  0  0  0  0  0  0  0  0  0
  -19.3950   37.5300   -4.2450 C   0  0  0  0  0  0  0  0  0  0  0  0
  -17.9710   38.0830   -4.5450 C   0  0  0  0  0  0  0  0  0  0  0  0
  -17.1120   37.0040   -5.2070 C   0  0  0  0  0  0  0  0  0  0  0  0
  -16.9360   35.8110   -4.2280 C   0  0  0  0  0  0  0  0  0  0  0  0
  -18.3010   35.4770   -3.4590 C   0  0  0  0  0  0  0  0  0  0  0  0
  -18.6330   33.9860   -3.7300 C   0  0  0  0  0  0  0  0  0  0  0  0
  -18.2290   35.7970   -1.9440 N   0  0  0  0  0  0  0  0  0  0  0  0
  -18.9440   36.7940   -1.2360 C   0  0  0  0  0  0  0  0  0  0  0  0
  -19.8090   37.8480   -1.7900 C   0  0  0  0  0  0  0  0  0  0  0  0
  -20.5160   38.7810   -0.9270 C   0  0  0  0  0  0  0  0  0  0  0  0
  -20.3280   38.6580    0.5320 C   0  0  0  0  0  0  0  0  0  0  0  0
  -19.4710   37.6630    1.1090 C   0  0  0  0  0  0  0  0  0  0  0  0
  -18.7700   36.7070    0.2050 C   0  0  0  0  0  0  0  0  0  0  0  0
  -17.8100   35.6060    0.3860 C   0  0  0  0  0  0  0  0  0  0  0  0
  -17.4740   35.0930   -0.9550 C   0  0  0  0  0  0  0  0  0  0  0  0
  -16.4820   34.0080   -1.1110 C   0  0  0  0  0  0  0  0  0  0  0  0
  -15.8490   33.4570    0.0910 C   0  0  0  0  0  0  0  0  0  0  0  0
  -16.2100   33.9720    1.4150 C   0  0  0  0  0  0  0  0  0  0  0  0
  -17.1900   35.0480    1.5810 C   0  0  0  0  0  0  0  0  0  0  0  0
  -19.4500   37.8590    2.6070 C   0  0  0  0  0  0  0  0  0  0  0  0
  -20.2620   39.0860    2.7680 N   0  0  0  0  0  0  0  0  0  0  0  0
  -20.8350   39.4820    1.6050 C   0  0  0  0  0  0  0  0  0  0  0  0
  -21.6510   40.3890    1.4550 O   0  0  0  0  0  0  0  0  0  0  0  0
  -21.2300   39.7230   -1.8260 C   0  0  0  0  0  0  0  0  0  0  0  0
  -20.9280   39.2780   -3.1940 C   0  0  0  0  0  0  0  0  0  0  0  0
  -21.5190   39.9870   -4.3630 C   0  0  0  0  0  0  0  0  0  0  0  0
  -22.4160   41.1410   -4.1280 C   0  0  0  0  0  0  0  0  0  0  0  0
  -22.7190   41.5830   -2.7470 C   0  0  0  0  0  0  0  0  0  0  0  0
  -22.1230   40.8720   -1.5800 C   0  0  0  0  0  0  0  0  0  0  0  0
  -20.0550   38.1300   -3.1300 N   0  0  0  0  0  0  0  0  0  0  0  0
  -15.9350   36.1960   -3.2830 O   0  0  0  0  0  0  0  0  0  0  0  0
  -14.6700   35.5240   -3.4470 C   0  0  0  0  0  0  0  0  0  0  0  0
  -15.8810   37.6390   -5.7070 N   0  0  0  0  0  0  0  0  0  0  0  0
  -15.3380   36.6840   -6.6890 C   0  0  0  0  0  0  0  0  0  0  0  0
  2  1  1  0
  6  1  1  0
  3  2  1  0
 31  2  1  0
  4  3  1  0
  5  4  1  0
 34  4  1  0
  6  5  1  0
 32  5  1  0
  7  6  1  0
  8  6  1  0
  9  8  1  0
 16  8  1  0
 10  9  2  0
 14  9  1  0
 11 10  1  0
 31 10  1  0
 12 11  2  0
 25 11  1  0
 13 12  1  0
 23 12  1  0
 14 13  2  0
 21 13  1  0
 15 14  1  0
 16 15  2  0
 20 15  1  0
 17 16  1  0
 18 17  2  0
 19 18  1  0
 20 19  2  0
 22 21  1  0
 23 22  1  0
 24 23  2  0
 26 25  2  0
 30 25  1  0
 27 26  1  0
 31 26  1  0
 28 27  2  0
 29 28  1  0
 30 29  2  0
 33 32  1  0
 35 34  1  0
A    1
O4
A    2
C25
A    3
C24
A    4
C23
A    5
C22
A    6
C21
A    7
C26
A    8
N2
A    9
C18
A   10
C19
A   11
C6
A   12
C7
A   13
C10
A   14
C11
A   15
C12
A   16
C17
A   17
C16
A   18
C15
A   19
C14
A   20
C13
A   21
C9
A   22
N1
A   23
C8
A   24
O5
A   25
C5
A   26
C20
A   27
C1
A   28
C2
A   29
C3
A   30
C4
A   31
N3
A   32
O6
A   33
C27
A   34
N4
A   35
C28
M  END
>  <Id>  (8) 
1YHS_STU_A_306

>  <ChainId>  (8) 
A

>  <AsymId>  (8) 
B

>  <SeqNum>  (8) 
306

>  <Name>  (8) 
STAUROSPORINE

>  <SystematicName>  (8) 
null

>  <Synonyms>  (8) 


>  <Type>  (8) 
NON-POLYMER

>  <Formula>  (8) 
C28 H26 N4 O3

>  <ObservedFormula>  (8) 
C28 N4 O3

>  <MolecularWeight>  (8) 
466.531

>  <ModifiedDate>  (8) 
2011-06-04

>  <Parent>  (8) 


>  <OneLetterCode>  (8) 


>  <SubcomponentList>  (8) 


>  <AmbiguousFlag>  (8) 
N

>  <InsertionCode>  (8) 


>  <InstanceId>  (8) 
1YHS_STU_A_306

>  <ChemCompId>  (8) 
STU

>  <PdbId>  (8) 
1YHS

>  <ResidueNumber>  (8) 
306

>  <InChI>  (8) 
InChI=1S/C28H26N4O3/c1-28-26(34-3)17(29-2)12-20(35-28)31-18-10-6-4-8-14(18)22-23-16(13-30-27(23)33)21-15-9-5-7-11-19(15)32(28)25(21)24(22)31/h4-11,17,20,26,29H,12-13H2,1-3H3,(H,30,33)/t17-,20-,26-,28+/m1/s1

>  <InChIKey>  (8) 
HKSZLNNOFSGOKW-FYTWVXJKSA-N

>  <SMILES>  (8) 
C[C@@]12[C@@H]([C@@H](C[C@@H](O1)n3c4ccccc4c5c3c6n2c7ccccc7c6c8c5C(=O)NC8)NC)OC

>  <MissingHeavyAtoms>  (8) 
0

>  <Model>  (8) 
1

>  <AltIds>  (8) 


>  <pKI>  (8) 
5.5

>  <ChemblID>  (8) 
CHEMBL1980995

>  <standardized_canonical_smiles>  (8) 
CNC1CC2OC(C)(C1OC)n1c3ccccc3c3c4c(c5c6ccccc6n2c5c31)C(=O)NC4

$$$$
5DGZ_L20_A_401
     RDKit          3D

 30 34  0  0  0  0  0  0  0  0999 V2000
   44.5980   -1.1100   -1.0340 C   0  0  0  0  0  0  0  0  0  0  0  0
   44.2710   -1.4510    0.3770 C   0  0  0  0  0  0  0  0  0  0  0  0
   45.1010   -1.4100    1.3310 N   0  0  0  0  0  0  0  0  0  0  0  0
   44.4870   -1.7880    2.4830 N   0  0  0  0  0  0  0  0  0  0  0  0
   43.2040   -2.0890    2.2410 C   0  0  0  0  0  0  0  0  0  0  0  0
   42.1870   -2.5110    3.0400 C   0  0  0  0  0  0  0  0  0  0  0  0
   40.9870   -2.7370    2.5060 C   0  0  0  0  0  0  0  0  0  0  0  0
   40.7520   -2.5460    1.1570 C   0  0  0  0  0  0  0  0  0  0  0  0
   41.7660   -2.1290    0.3480 C   0  0  0  0  0  0  0  0  0  0  0  0
   43.0070   -1.8950    0.8920 C   0  0  0  0  0  0  0  0  0  0  0  0
   39.4120   -2.8310    0.6340 C   0  0  0  0  0  0  0  0  0  0  0  0
   38.3270   -2.5870    1.4250 C   0  0  0  0  0  0  0  0  0  0  0  0
   37.1450   -2.8360    1.0090 N   0  0  0  0  0  0  0  0  0  0  0  0
   36.9430   -3.3410   -0.1620 C   0  0  0  0  0  0  0  0  0  0  0  0
   37.9510   -3.6360   -1.0290 C   0  0  0  0  0  0  0  0  0  0  0  0
   37.6480   -4.1490   -2.2180 O   0  0  0  0  0  0  0  0  0  0  0  0
   38.5510   -4.9950   -2.8760 C   0  0  0  0  0  0  0  0  0  0  0  0
   37.9050   -5.5470   -4.1290 C   0  0  0  0  0  0  0  0  0  0  0  0
   36.7350   -6.2860   -3.7140 N   0  0  0  0  0  0  0  0  0  0  0  0
   37.5000   -4.4230   -5.0860 C   0  0  0  0  0  0  0  0  0  0  0  0
   38.6930   -3.6890   -5.6200 C   0  0  0  0  0  0  0  0  0  0  0  0
   39.3650   -3.9440   -6.7250 C   0  0  0  0  0  0  0  0  0  0  0  0
   40.3870   -3.0870   -6.8580 N   0  0  0  0  0  0  0  0  0  0  0  0
   40.4060   -2.2310   -5.8220 C   0  0  0  0  0  0  0  0  0  0  0  0
   41.2270   -1.1850   -5.4960 C   0  0  0  0  0  0  0  0  0  0  0  0
   40.9810   -0.5000   -4.3550 C   0  0  0  0  0  0  0  0  0  0  0  0
   39.9240   -0.8300   -3.5510 C   0  0  0  0  0  0  0  0  0  0  0  0
   39.1120   -1.8580   -3.8570 C   0  0  0  0  0  0  0  0  0  0  0  0
   39.3440   -2.5680   -5.0020 C   0  0  0  0  0  0  0  0  0  0  0  0
   39.2280   -3.3800   -0.6210 C   0  0  0  0  0  0  0  0  0  0  0  0
  2  1  1  0
  3  2  2  0
 10  2  1  0
  4  3  1  0
  5  4  1  0
  6  5  1  0
 10  5  2  0
  7  6  2  0
  8  7  1  0
  9  8  2  0
 11  8  1  0
 10  9  1  0
 12 11  2  0
 30 11  1  0
 13 12  1  0
 14 13  2  0
 15 14  1  0
 16 15  1  0
 30 15  2  0
 17 16  1  0
 18 17  1  0
 19 18  1  0
 20 18  1  0
 21 20  1  0
 22 21  2  0
 29 21  1  0
 23 22  1  0
 24 23  1  0
 25 24  1  0
 29 24  2  0
 26 25  2  0
 27 26  1  0
 28 27  2  0
 29 28  1  0
A    1
C1
A    2
C2
A    3
N3
A    4
N4
A    5
C6
A    6
C7
A    7
C8
A    8
C9
A    9
C10
A   10
C11
A   11
C12
A   12
C13
A   13
N14
A   14
C15
A   15
C16
A   16
O17
A   17
C18
A   18
C19
A   19
N21
A   20
C25
A   21
C26
A   22
C27
A   23
N28
A   24
C30
A   25
C31
A   26
C32
A   27
C33
A   28
C34
A   29
C35
A   30
C36
M  END
>  <Id>  (9) 
5DGZ_L20_A_401

>  <ChainId>  (9) 
A

>  <AsymId>  (9) 
B

>  <SeqNum>  (9) 
401

>  <Name>  (9) 
(2S)-1-(1H-INDOL-3-YL)-3-{[5-(3-METHYL-1H-INDAZOL-5-YL)PYRIDIN-3-YL]OXY}PROPAN-2-AMINE

>  <SystematicName>  (9) 
(2S)-1-(1H-indol-3-yl)-3-[5-(3-methyl-1H-indazol-5-yl)pyridin-3-yl]oxy-propan-2-amine

>  <Synonyms>  (9) 


>  <Type>  (9) 
NON-POLYMER

>  <Formula>  (9) 
C24 H23 N5 O

>  <ObservedFormula>  (9) 
C24 N5 O

>  <MolecularWeight>  (9) 
397.472

>  <ModifiedDate>  (9) 
2011-06-04

>  <Parent>  (9) 


>  <OneLetterCode>  (9) 


>  <SubcomponentList>  (9) 


>  <AmbiguousFlag>  (9) 


>  <InsertionCode>  (9) 


>  <InstanceId>  (9) 
5DGZ_L20_A_401

>  <ChemCompId>  (9) 
L20

>  <PdbId>  (9) 
5DGZ

>  <ResidueNumber>  (9) 
401

>  <InChI>  (9) 
InChI=1S/C24H23N5O/c1-15-22-10-16(6-7-24(22)29-28-15)17-9-20(13-26-11-17)30-14-19(25)8-18-12-27-23-5-3-2-4-21(18)23/h2-7,9-13,19,27H,8,14,25H2,1H3,(H,28,29)/t19-/m0/s1

>  <InChIKey>  (9) 
YWTBGJGMTBHQTM-IBGZPJMESA-N

>  <SMILES>  (9) 
Cc1c2cc(ccc2[nH]n1)c3cc(cnc3)OC[C@H](Cc4c[nH]c5c4cccc5)N

>  <MissingHeavyAtoms>  (9) 
0

>  <Model>  (9) 
1

>  <AltIds>  (9) 


>  <pKI>  (9) 
8.1

>  <ChemblID>  (9) 
CHEMBL1970903

>  <standardized_canonical_smiles>  (9) 
Cc1[nH]nc2ccc(-c3cncc(OCC(N)Cc4c[nH]c5ccccc45)c3)cc12

$$$$
5O13_9G5_A_401
     RDKit          3D

 33 37  0  0  0  0  0  0  0  0999 V2000
  -72.0440   44.3040  -10.0740 N   0  0  0  0  0  0  0  0  0  0  0  0
  -70.7680   44.8880  -10.4870 C   0  0  0  0  0  0  0  0  0  0  0  0
  -71.1430   45.9540  -11.5290 C   0  0  0  0  0  0  0  0  0  0  0  0
  -72.8510   44.8550   -9.1320 C   0  0  0  0  0  0  0  0  0  0  0  0
  -72.4390   45.1060   -7.6910 C   0  0  0  0  0  0  0  0  0  0  0  0
  -72.8030   44.2230   -6.6840 C   0  0  0  0  0  0  0  0  0  0  0  0
  -71.7680   45.6470   -5.0180 C   0  0  0  0  0  0  0  0  0  0  0  0
  -70.6570   47.7240   -5.6850 C   0  0  0  0  0  0  0  0  0  0  0  0
  -69.4680   49.6150   -5.8590 C   0  0  0  0  0  0  0  0  0  0  0  0
  -69.6460   50.3130   -3.4560 C   0  0  0  0  0  0  0  0  0  0  0  0
  -70.5340   49.3200    0.0650 C   0  0  0  0  0  0  0  0  0  0  0  0
  -70.9870   48.4100    0.9880 C   0  0  0  0  0  0  0  0  0  0  0  0
  -71.3630   47.1250    0.6330 C   0  0  0  0  0  0  0  0  0  0  0  0
  -70.7990   47.5850   -1.6390 C   0  0  0  0  0  0  0  0  0  0  0  0
  -69.3710   52.2790   -1.2500 O   0  0  0  0  0  0  0  0  0  0  0  0
  -69.7840   51.0730   -1.0170 C   0  0  0  0  0  0  0  0  0  0  0  0
  -70.1470   50.6180    0.1890 N   0  0  0  0  0  0  0  0  0  0  0  0
  -71.2310   46.7360   -0.6640 C   0  0  0  0  0  0  0  0  0  0  0  0
  -71.7290   45.0910   -1.0790 Cl  0  0  0  0  0  0  0  0  0  0  0  0
  -70.4560   48.8930   -1.3210 C   0  0  0  0  0  0  0  0  0  0  0  0
  -69.9240   50.0750   -2.0260 C   0  0  0  0  0  0  0  0  0  0  0  0
  -69.8460   49.3650   -4.5620 C   0  0  0  0  0  0  0  0  0  0  0  0
  -69.9210   48.5180   -6.5620 C   0  0  0  0  0  0  0  0  0  0  0  0
  -70.6520   48.2960   -4.4360 O   0  0  0  0  0  0  0  0  0  0  0  0
  -71.3840   46.4940   -6.0210 C   0  0  0  0  0  0  0  0  0  0  0  0
  -72.4510   44.4930   -5.3600 C   0  0  0  0  0  0  0  0  0  0  0  0
  -71.7520   46.2620   -7.3420 C   0  0  0  0  0  0  0  0  0  0  0  0
  -73.9970   45.2320   -9.4320 O   0  0  0  0  0  0  0  0  0  0  0  0
  -72.4260   43.1450  -10.8610 C   0  0  0  0  0  0  0  0  0  0  0  0
  -72.9100   43.7510  -12.1840 C   0  0  0  0  0  0  0  0  0  0  0  0
  -71.7590   44.1110  -13.1360 C   0  0  0  0  0  0  0  0  0  0  0  0
  -71.0900   45.4290  -12.9110 N   0  0  0  0  0  0  0  0  0  0  0  0
  -71.5390   46.4610  -13.8760 C   0  0  0  0  0  0  0  0  0  0  0  0
  2  1  1  0
  4  1  1  0
 29  1  1  0
  3  2  1  0
 32  3  1  0
  5  4  1  0
 28  4  2  0
  6  5  2  0
 27  5  1  0
 26  6  1  0
 25  7  1  0
 26  7  2  0
 23  8  2  0
 24  8  1  0
 25  8  1  0
 22  9  2  0
 23  9  1  0
 21 10  2  0
 22 10  1  0
 12 11  2  0
 17 11  1  0
 20 11  1  0
 13 12  1  0
 18 13  2  0
 18 14  1  0
 20 14  2  0
 16 15  2  0
 17 16  1  0
 21 16  1  0
 19 18  1  0
 21 20  1  0
 24 22  1  0
 27 25  2  0
 30 29  1  0
 31 30  1  0
 32 31  1  0
 33 32  1  0
A    1
N1
A    2
C4
A    3
C5
A    4
C6
A    5
C7
A    6
C8
A    7
C10
A    8
C13
A    9
C15
A   10
C17
A   11
C20
A   12
C21
A   13
C22
A   14
C24
A   15
O2
A   16
C25
A   17
N2
A   18
C23
A   19
CL
A   20
C19
A   21
C18
A   22
C16
A   23
C14
A   24
O1
A   25
C11
A   26
C9
A   27
C12
A   28
O
A   29
C3
A   30
C2
A   31
C1
A   32
N
A   33
C
M  END
>  <Id>  (10) 
5O13_9G5_A_401

>  <ChainId>  (10) 
A

>  <AsymId>  (10) 
B

>  <SeqNum>  (10) 
401

>  <Name>  (10) 
(3~{E})-5-chloranyl-3-[[5-[3-[(4-methyl-1,4-diazepan-1-yl)carbonyl]phenyl]furan-2-yl]methylidene]-1~{H}-indol-2-one

>  <SystematicName>  (10) 
(3~{E})-5-chloranyl-3-[[5-[3-[(4-methyl-1,4-diazepan-1-yl)carbonyl]phenyl]furan-2-yl]methylidene]-1~{H}-indol-2-one

>  <Synonyms>  (10) 


>  <Type>  (10) 
NON-POLYMER

>  <Formula>  (10) 
C26 H24 Cl N3 O3

>  <ObservedFormula>  (10) 
C26 Cl N3 O3

>  <MolecularWeight>  (10) 
461.94

>  <ModifiedDate>  (10) 
2017-10-27

>  <Parent>  (10) 


>  <OneLetterCode>  (10) 


>  <SubcomponentList>  (10) 


>  <AmbiguousFlag>  (10) 
N

>  <InsertionCode>  (10) 


>  <InstanceId>  (10) 
5O13_9G5_A_401

>  <ChemCompId>  (10) 
9G5

>  <PdbId>  (10) 
5O13

>  <ResidueNumber>  (10) 
401

>  <InChI>  (10) 
InChI=1S/C26H24ClN3O3/c1-29-10-3-11-30(13-12-29)26(32)18-5-2-4-17(14-18)24-9-7-20(33-24)16-22-21-15-19(27)6-8-23(21)28-25(22)31/h2,4-9,14-16H,3,10-13H2,1H3,(H,28,31)/b22-16+

>  <InChIKey>  (10) 
KGBPLKOPSFDBOX-CJLVFECKSA-N

>  <SMILES>  (10) 
CN1CCCN(CC1)C(=O)c2cccc(c2)c3ccc(o3)/C=C/4\c5cc(ccc5NC4=O)Cl

>  <MissingHeavyAtoms>  (10) 
0

>  <Model>  (10) 
1

>  <AltIds>  (10) 


>  <pKI>  (10) 
8.3

>  <ChemblID>  (10) 
CHEMBL2037200

>  <standardized_canonical_smiles>  (10) 
CN1CCCN(C(=O)c2cccc(-c3ccc(/C=C4/C(=O)Nc5ccc(Cl)cc54)o3)c2)CC1

$$$$
4N6Z_2HW_A_401
     RDKit          3D

 23 25  0  0  0  0  0  0  0  0999 V2000
  -18.6500   36.5270    1.6050 O   0  0  0  0  0  0  0  0  0  0  0  0
  -18.9010   36.8130    0.4370 C   0  0  0  0  0  0  0  0  0  0  0  0
  -19.8770   37.9010    0.0910 C   0  0  0  0  0  0  0  0  0  0  0  0
  -20.5690   38.6950    1.0570 C   0  0  0  0  0  0  0  0  0  0  0  0
  -20.3570   38.5810    2.3760 N   0  0  0  0  0  0  0  0  0  0  0  0
  -21.4520   39.6370    0.6490 N   0  0  0  0  0  0  0  0  0  0  0  0
  -21.6260   39.8100   -0.6680 C   0  0  0  0  0  0  0  0  0  0  0  0
  -20.9390   39.0590   -1.5960 C   0  0  0  0  0  0  0  0  0  0  0  0
  -20.0760   38.1000   -1.2290 N   0  0  0  0  0  0  0  0  0  0  0  0
  -18.3300   36.2290   -0.6450 N   0  0  0  0  0  0  0  0  0  0  0  0
  -17.4020   35.1610   -0.7190 C   0  0  0  0  0  0  0  0  0  0  0  0
  -16.9560   34.4490    0.3940 C   0  0  0  0  0  0  0  0  0  0  0  0
  -16.0220   33.4960    0.3470 N   0  0  0  0  0  0  0  0  0  0  0  0
  -15.4890   33.2230   -0.8430 C   0  0  0  0  0  0  0  0  0  0  0  0
  -15.8470   33.8580   -2.0130 C   0  0  0  0  0  0  0  0  0  0  0  0
  -16.8260   34.8480   -1.9580 C   0  0  0  0  0  0  0  0  0  0  0  0
  -17.2400   35.5260   -3.1270 N   0  0  0  0  0  0  0  0  0  0  0  0
  -18.5150   35.0980   -3.7150 C   0  0  0  0  0  0  0  0  0  0  0  0
  -19.0580   36.1470   -4.6550 C   0  0  0  0  0  0  0  0  0  0  0  0
  -18.0070   36.5470   -5.6880 C   0  0  0  0  0  0  0  0  0  0  0  0
  -16.2160   35.9080   -4.1010 C   0  0  0  0  0  0  0  0  0  0  0  0
  -16.7400   37.0180   -4.9930 C   0  0  0  0  0  0  0  0  0  0  0  0
  -15.6770   37.3540   -5.9470 N   0  0  0  0  0  0  0  0  0  0  0  0
  2  1  2  0
  3  2  1  0
 10  2  1  0
  4  3  2  0
  9  3  1  0
  5  4  1  0
  6  4  1  0
  7  6  2  0
  8  7  1  0
  9  8  2  0
 11 10  1  0
 12 11  2  0
 16 11  1  0
 13 12  1  0
 14 13  2  0
 15 14  1  0
 16 15  2  0
 17 16  1  0
 18 17  1  0
 21 17  1  0
 19 18  1  0
 20 19  1  0
 22 20  1  0
 22 21  1  0
 23 22  1  0
A    1
O
A    2
C10
A    3
C11
A    4
C14
A    5
N6
A    6
N5
A    7
C13
A    8
C12
A    9
N4
A   10
N3
A   11
C9
A   12
C8
A   13
N2
A   14
C7
A   15
C6
A   16
C5
A   17
N1
A   18
C3
A   19
C2
A   20
C1
A   21
C4
A   22
C
A   23
N
M  END
>  <Id>  (11) 
4N6Z_2HW_A_401

>  <ChainId>  (11) 
A

>  <AsymId>  (11) 
B

>  <SeqNum>  (11) 
401

>  <Name>  (11) 
3-amino-N-{4-[(3S)-3-aminopiperidin-1-yl]pyridin-3-yl}pyrazine-2-carboxamide

>  <SystematicName>  (11) 
3-azanyl-N-[4-[(3S)-3-azanylpiperidin-1-yl]pyridin-3-yl]pyrazine-2-carboxamide

>  <Synonyms>  (11) 


>  <Type>  (11) 
NON-POLYMER

>  <Formula>  (11) 
C15 H19 N7 O

>  <ObservedFormula>  (11) 
C15 N7 O

>  <MolecularWeight>  (11) 
313.358

>  <ModifiedDate>  (11) 
2013-11-01

>  <Parent>  (11) 


>  <OneLetterCode>  (11) 


>  <SubcomponentList>  (11) 


>  <AmbiguousFlag>  (11) 
N

>  <InsertionCode>  (11) 


>  <InstanceId>  (11) 
4N6Z_2HW_A_401

>  <ChemCompId>  (11) 
2HW

>  <PdbId>  (11) 
4N6Z

>  <ResidueNumber>  (11) 
401

>  <InChI>  (11) 
InChI=1S/C15H19N7O/c16-10-2-1-7-22(9-10)12-3-4-18-8-11(12)21-15(23)13-14(17)20-6-5-19-13/h3-6,8,10H,1-2,7,9,16H2,(H2,17,20)(H,21,23)/t10-/m0/s1

>  <InChIKey>  (11) 
PKUDLMDWOHMCHC-JTQLQIEISA-N

>  <SMILES>  (11) 
c1cncc(c1N2CCC[C@@H](C2)N)NC(=O)c3c(nccn3)N

>  <MissingHeavyAtoms>  (11) 
0

>  <Model>  (11) 
1

>  <AltIds>  (11) 


>  <pKI>  (11) 
7.8

>  <ChemblID>  (11) 
CHEMBL3103857

>  <standardized_canonical_smiles>  (11) 
Nc1nccnc1C(=O)Nc1cnccc1N1CCC[C@H](N)C1

$$$$
4N6Y_2HV_A_401
     RDKit          3D

 24 26  0  0  0  0  0  0  0  0999 V2000
   21.8570   33.1440   -4.7370 C   0  0  0  0  0  0  0  0  0  0  0  0
   23.0080   36.0070    0.5480 C   0  0  0  0  0  0  0  0  0  0  0  0
   22.2760   31.7490   -4.3200 C   0  0  0  0  0  0  0  0  0  0  0  0
   21.5340   32.5720    0.4020 C   0  0  0  0  0  0  0  0  0  0  0  0
   22.6240   34.7090    1.1500 C   0  0  0  0  0  0  0  0  0  0  0  0
   23.1310   36.1350   -0.8210 N   0  0  0  0  0  0  0  0  0  0  0  0
   20.8120   30.4380   -0.4760 C   0  0  0  0  0  0  0  0  0  0  0  0
   21.2700   31.7320   -0.7020 C   0  0  0  0  0  0  0  0  0  0  0  0
   23.8250   39.0090   -2.9220 C   0  0  0  0  0  0  0  0  0  0  0  0
   23.4310   37.3740   -1.1180 C   0  0  0  0  0  0  0  0  0  0  0  0
   22.2910   33.7630    0.2440 N   0  0  0  0  0  0  0  0  0  0  0  0
   20.5460   30.0020    0.8090 C   0  0  0  0  0  0  0  0  0  0  0  0
   23.5820   38.4520    0.2310 S   0  0  0  0  0  0  0  0  0  0  0  0
   20.7330   30.8410    1.8780 C   0  0  0  0  0  0  0  0  0  0  0  0
   23.8630   40.0020   -2.2040 O   0  0  0  0  0  0  0  0  0  0  0  0
   21.3900   32.1850   -2.0500 N   0  0  0  0  0  0  0  0  0  0  0  0
   23.6110   37.7410   -2.4380 N   0  0  0  0  0  0  0  0  0  0  0  0
   20.6560   33.5960   -3.9460 C   0  0  0  0  0  0  0  0  0  0  0  0
   22.5180   31.6700   -2.8320 C   0  0  0  0  0  0  0  0  0  0  0  0
   20.9330   33.5160   -2.4660 C   0  0  0  0  0  0  0  0  0  0  0  0
   22.6580   34.5430    2.3720 O   0  0  0  0  0  0  0  0  0  0  0  0
   21.2120   32.1240    1.6880 C   0  0  0  0  0  0  0  0  0  0  0  0
   23.2250   37.1340    1.2710 C   0  0  0  0  0  0  0  0  0  0  0  0
   24.0120   39.0980   -4.4050 C   0  0  0  0  0  0  0  0  0  0  0  0
  1  3  1  0
  6  2  1  0
 19 16  1  0
 11  4  1  0
  5 21  2  0
 18 20  1  0
 24  9  1  0
  9 17  1  0
  8  4  1  0
 20 16  1  0
  8  7  2  0
 10 13  1  0
 11  5  1  0
  4 22  2  0
 12 14  2  0
  2 23  2  0
  3 19  1  0
  2  5  1  0
 17 10  1  0
 10  6  2  0
 22 14  1  0
 16  8  1  0
  1 18  1  0
  9 15  2  0
 13 23  1  0
  7 12  1  0
A    1
C14
A    2
C3
A    3
C13
A    4
C6
A    5
C5
A    6
N1
A    7
C10
A    8
C11
A    9
C1
A   10
C2
A   11
N2
A   12
C9
A   13
S
A   14
C8
A   15
O
A   16
N3
A   17
N
A   18
C15
A   19
C12
A   20
C16
A   21
O1
A   22
C7
A   23
C4
A   24
C
M  END
>  <InstanceId>  (12) 
4N6Y_2HV

>  <ChemCompId>  (12) 
2HV

>  <PdbId>  (12) 
4N6Y

>  <ChainId>  (12) 
A

>  <ResidueNumber>  (12) 
401

>  <InsertionCode>  (12) 
null

>  <Model>  (12) 
1

>  <AltIds>  (12) 


>  <MissingHeavyAtoms>  (12) 
0

>  <ObservedFormula>  (12) 
C17 N4 O2 S

>  <AsymId>  (12) 
B

>  <SeqNum>  (12) 
401

>  <Name>  (12) 
2-(acetylamino)-N-[2-(piperidin-1-yl)phenyl]-1,3-thiazole-4-carboxamide

>  <SystematicName>  (12) 
2-acetamido-N-(2-piperidin-1-ylphenyl)-1,3-thiazole-4-carboxamide

>  <Synonyms>  (12) 


>  <Type>  (12) 
NON-POLYMER

>  <Formula>  (12) 
C17 H20 N4 O2 S

>  <MolecularWeight>  (12) 
344.431

>  <ModifiedDate>  (12) 
2013-11-01

>  <Parent>  (12) 


>  <OneLetterCode>  (12) 


>  <SubcomponentList>  (12) 


>  <AmbiguousFlag>  (12) 
N

>  <InChI>  (12) 
InChI=1S/C17H20N4O2S/c1-12(22)18-17-20-14(11-24-17)16(23)19-13-7-3-4-8-15(13)21-9-5-2-6-10-21/h3-4,7-8,11H,2,5-6,9-10H2,1H3,(H,19,23)(H,18,20,22)

>  <InChIKey>  (12) 
XPDNPGNUQDMFOW-UHFFFAOYSA-N

>  <SMILES>  (12) 
CC(=O)Nc1nc(cs1)C(=O)Nc2ccccc2N3CCCCC3

>  <pKI>  (12) 
7.04

>  <ChemblID>  (12) 
CHEMBL3103881

>  <standardized_canonical_smiles>  (12) 
CC(=O)Nc1nc(C(=O)Nc2ccccc2N2CCCCC2)cs1

$$$$
5DHJ_5E5_A_401
     RDKit          3D

 16 18  0  0  0  0  0  0  0  0999 V2000
   22.5750   35.4480    0.3750 C   0  0  0  0  0  0  0  0  0  0  0  0
   23.4270   37.9400    0.5440 C   0  0  0  0  0  0  0  0  0  0  0  0
   22.8900   35.4890    3.1170 C   0  0  0  0  0  0  0  0  0  0  0  0
   23.7880   38.6470    1.5850 N   0  0  0  0  0  0  0  0  0  0  0  0
   23.0330   36.6400    0.9860 C   0  0  0  0  0  0  0  0  0  0  0  0
   23.4710   38.4530   -0.8820 C   0  0  0  0  0  0  0  0  0  0  0  0
   23.6510   37.8830    2.7570 N   0  0  0  0  0  0  0  0  0  0  0  0
   23.1930   36.6390    2.3970 C   0  0  0  0  0  0  0  0  0  0  0  0
   22.3030   34.3440    1.1930 C   0  0  0  0  0  0  0  0  0  0  0  0
   22.4710   34.4020    2.5110 N   0  0  0  0  0  0  0  0  0  0  0  0
   21.8290   33.0450    0.6550 C   0  0  0  0  0  0  0  0  0  0  0  0
   21.9140   32.7440   -0.7130 C   0  0  0  0  0  0  0  0  0  0  0  0
   21.4630   31.4950   -1.1350 C   0  0  0  0  0  0  0  0  0  0  0  0
   20.9500   30.6060   -0.1980 C   0  0  0  0  0  0  0  0  0  0  0  0
   20.8950   30.9170    1.0910 N   0  0  0  0  0  0  0  0  0  0  0  0
   21.3100   32.0890    1.5390 C   0  0  0  0  0  0  0  0  0  0  0  0
  5  1  1  0
  9  1  2  0
  4  2  1  0
  5  2  2  0
  6  2  1  0
  8  3  1  0
 10  3  2  0
  7  4  1  0
  8  5  1  0
  8  7  2  0
 10  9  1  0
 11  9  1  0
 12 11  2  0
 16 11  1  0
 13 12  1  0
 14 13  2  0
 15 14  1  0
 16 15  2  0
A    1
C7
A    2
C2
A    3
C10
A    4
N3
A    5
C6
A    6
C1
A    7
N4
A    8
C5
A    9
C8
A   10
N9
A   11
C11
A   12
C12
A   13
C13
A   14
C14
A   15
N15
A   16
C16
M  END
>  <Id>  (13) 
5DHJ_5E5_A_401

>  <ChainId>  (13) 
A

>  <AsymId>  (13) 
B

>  <SeqNum>  (13) 
401

>  <Name>  (13) 
3-methyl-5-(pyridin-3-yl)-2H-pyrazolo[3,4-c]pyridine

>  <SystematicName>  (13) 
3-methyl-5-pyridin-3-yl-2H-pyrazolo[3,4-c]pyridine

>  <Synonyms>  (13) 


>  <Type>  (13) 
NON-POLYMER

>  <Formula>  (13) 
C12 H10 N4

>  <ObservedFormula>  (13) 
C12 N4

>  <MolecularWeight>  (13) 
210.235

>  <ModifiedDate>  (13) 
2015-10-23

>  <Parent>  (13) 


>  <OneLetterCode>  (13) 


>  <SubcomponentList>  (13) 


>  <AmbiguousFlag>  (13) 
N

>  <InsertionCode>  (13) 


>  <InstanceId>  (13) 
5DHJ_5E5_A_401

>  <ChemCompId>  (13) 
5E5

>  <PdbId>  (13) 
5DHJ

>  <ResidueNumber>  (13) 
401

>  <InChI>  (13) 
InChI=1S/C12H10N4/c1-8-10-5-11(9-3-2-4-13-6-9)14-7-12(10)16-15-8/h2-7H,1H3,(H,15,16)

>  <InChIKey>  (13) 
UQUBWQXJXQJXPB-UHFFFAOYSA-N

>  <SMILES>  (13) 
Cc1c2cc(ncc2n[nH]1)c3cccnc3

>  <MissingHeavyAtoms>  (13) 
0

>  <Model>  (13) 
1

>  <AltIds>  (13) 


>  <pKI>  (13) 
6.7

>  <ChemblID>  (13) 
CHEMBL3634786

>  <standardized_canonical_smiles>  (13) 
Cc1[nH]nc2cnc(-c3cccnc3)cc12

$$$$
6NO9_KUV_A_504
     RDKit          3D

 32 35  0  0  0  0  0  0  0  0999 V2000
  -36.3920   -2.5070    6.7130 N   0  0  0  0  0  0  0  0  0  0  0  0
  -42.1430   -1.7490    5.5880 C   0  0  0  0  0  0  0  0  0  0  0  0
  -38.4930   -2.3090    6.1060 C   0  0  0  0  0  0  0  0  0  0  0  0
  -35.1770   -2.7260    7.5100 C   0  0  0  0  0  0  0  0  0  0  0  0
  -43.1370   -1.3920    4.7030 C   0  0  0  0  0  0  0  0  0  0  0  0
  -43.7550   -1.5060    7.1550 C   0  0  0  0  0  0  0  0  0  0  0  0
  -44.3490   -1.5130    8.5230 C   0  0  0  0  0  0  0  0  0  0  0  0
  -43.7610   -2.2280    9.5810 C   0  0  0  0  0  0  0  0  0  0  0  0
  -44.3330   -2.2260   10.8450 C   0  0  0  0  0  0  0  0  0  0  0  0
  -45.5060   -1.5210   11.0790 C   0  0  0  0  0  0  0  0  0  0  0  0
  -46.1050   -0.8290   10.0410 C   0  0  0  0  0  0  0  0  0  0  0  0
  -45.5390   -0.8190    8.7780 C   0  0  0  0  0  0  0  0  0  0  0  0
  -37.7350   -4.0250    8.9920 C   0  0  0  0  0  0  0  0  0  0  0  0
  -38.2170   -4.3370   10.4210 C   0  0  0  0  0  0  0  0  0  0  0  0
  -39.6260   -3.7680   10.6910 C   0  0  0  0  0  0  0  0  0  0  0  0
  -39.6010   -2.3420   11.1830 C   0  0  0  0  0  0  0  0  0  0  0  0
  -37.6750   -2.5100    7.1750 C   0  0  0  0  0  0  0  0  0  0  0  0
  -39.2980   -1.3500   10.0400 C   0  0  0  0  0  0  0  0  0  0  0  0
  -37.9980   -1.6250    9.4350 C   0  0  0  0  0  0  0  0  0  0  0  0
  -37.6930   -2.1190    4.9740 C   0  0  0  0  0  0  0  0  0  0  0  0
  -40.7500   -1.9920    5.2090 C   0  0  0  0  0  0  0  0  0  0  0  0
  -46.1290   -0.1380    7.7740 F   0  0  0  0  0  0  0  0  0  0  0  0
  -42.6170   -2.9130    9.3820 F   0  0  0  0  0  0  0  0  0  0  0  0
  -40.8660   -2.0710   11.7350 F   0  0  0  0  0  0  0  0  0  0  0  0
  -42.5130   -1.7600    6.8760 N   0  0  0  0  0  0  0  0  0  0  0  0
  -43.0350   -1.2790    3.3290 N   0  0  0  0  0  0  0  0  0  0  0  0
  -38.1450   -2.7380    8.4730 N   0  0  0  0  0  0  0  0  0  0  0  0
  -40.2630   -4.6300   11.7070 N   0  0  0  0  0  0  0  0  0  0  0  0
  -36.4410   -2.2630    5.3420 N   0  0  0  0  0  0  0  0  0  0  0  0
  -39.8900   -2.1760    6.2310 N   0  0  0  0  0  0  0  0  0  0  0  0
  -40.3830   -2.0010    4.0450 O   0  0  0  0  0  0  0  0  0  0  0  0
  -44.5990   -1.1410    5.6440 S   0  0  0  0  0  0  0  0  0  0  0  0
  4  1  1  0
 17  1  1  0
 29  1  1  0
  5  2  2  0
 21  2  1  0
 25  2  1  0
 17  3  2  0
 20  3  1  0
 30  3  1  0
 26  5  1  0
 32  5  1  0
  7  6  1  0
 25  6  2  0
 32  6  1  0
  8  7  2  0
 12  7  1  0
  9  8  1  0
 23  8  1  0
 10  9  2  0
 11 10  1  0
 12 11  2  0
 22 12  1  0
 14 13  1  0
 27 13  1  0
 15 14  1  0
 16 15  1  0
 28 15  1  0
 18 16  1  0
 24 16  1  0
 27 17  1  0
 19 18  1  0
 27 19  1  0
 29 20  2  0
 30 21  1  0
 31 21  2  0
A    1
N2
A    2
C10
A    3
C4
A    4
C1
A    5
C11
A    6
C13
A    7
C15
A    8
C16
A    9
C17
A   10
C18
A   11
C19
A   12
C20
A   13
C25
A   14
C26
A   15
C27
A   16
C29
A   17
C3
A   18
C31
A   19
C32
A   20
C5
A   21
C8
A   22
F21
A   23
F22
A   24
F33
A   25
N14
A   26
N23
A   27
N24
A   28
N34
A   29
N6
A   30
N7
A   31
O9
A   32
S12
M  END
>  <Id>  (14) 
6NO9_KUV_A_504

>  <ChainId>  (14) 
A

>  <AsymId>  (14) 
E

>  <SeqNum>  (14) 
504

>  <Name>  (14) 
5-amino-N-{5-[(4R,5R)-4-amino-5-fluoroazepan-1-yl]-1-methyl-1H-pyrazol-4-yl}-2-(2,6-difluorophenyl)-1,3-thiazole-4-carboxamide

>  <SystematicName>  (14) 
5-azanyl-~{N}-[5-[(4~{R},5~{R})-4-azanyl-5-fluoranyl-azepan-1-yl]-1-methyl-pyrazol-4-yl]-2-[2,6-bis(fluoranyl)phenyl]-1,3-thiazole-4-carboxamide

>  <Synonyms>  (14) 


>  <Type>  (14) 
NON-POLYMER

>  <Formula>  (14) 
C20 H22 F3 N7 O S

>  <ObservedFormula>  (14) 
C20 S F3 N7 O

>  <MolecularWeight>  (14) 
465.495

>  <ModifiedDate>  (14) 
2019-02-22

>  <Parent>  (14) 


>  <OneLetterCode>  (14) 


>  <SubcomponentList>  (14) 


>  <AmbiguousFlag>  (14) 
N

>  <InsertionCode>  (14) 


>  <InstanceId>  (14) 
6NO9_KUV_A_504

>  <ChemCompId>  (14) 
KUV

>  <PdbId>  (14) 
6NO9

>  <ResidueNumber>  (14) 
504

>  <InChI>  (14) 
InChI=1S/C20H22F3N7OS/c1-29-20(30-7-5-10(21)13(24)6-8-30)14(9-26-29)27-18(31)16-17(25)32-19(28-16)15-11(22)3-2-4-12(15)23/h2-4,9-10,13H,5-8,24-25H2,1H3,(H,27,31)/t10-,13-/m1/s1

>  <InChIKey>  (14) 
NHXVGMQFCYBLTL-ZWNOBZJWSA-N

>  <SMILES>  (14) 
Cn1c(c(cn1)NC(=O)c2c(sc(n2)c3c(cccc3F)F)N)N4CC[C@H]([C@@H](CC4)F)N

>  <MissingHeavyAtoms>  (14) 
0

>  <Model>  (14) 
1

>  <AltIds>  (14) 


>  <pKI>  (14) 
10.4

>  <ChemblID>  (14) 
CHEMBL3648680

>  <standardized_canonical_smiles>  (14) 
Cn1ncc(NC(=O)c2nc(-c3c(F)cccc3F)sc2N)c1N1CC[C@@H](N)[C@H](F)CC1

$$$$
6NO8_KUY_A_401
     RDKit          3D

 31 34  0  0  0  0  0  0  0  0999 V2000
   20.3560  -30.1950    1.1890 N   0  0  0  0  0  0  0  0  0  0  0  0
   22.4590  -35.6070    0.0950 C   0  0  0  0  0  0  0  0  0  0  0  0
   21.1300  -32.1670    0.6260 C   0  0  0  0  0  0  0  0  0  0  0  0
   19.9990  -29.0110    1.9680 C   0  0  0  0  0  0  0  0  0  0  0  0
   22.6720  -36.6380   -0.7950 C   0  0  0  0  0  0  0  0  0  0  0  0
   22.9820  -37.1560    1.6410 C   0  0  0  0  0  0  0  0  0  0  0  0
   23.2170  -37.6980    3.0020 C   0  0  0  0  0  0  0  0  0  0  0  0
   23.3780  -36.8550    4.1060 C   0  0  0  0  0  0  0  0  0  0  0  0
   23.5830  -37.3870    5.3680 C   0  0  0  0  0  0  0  0  0  0  0  0
   23.6370  -38.7560    5.5530 C   0  0  0  0  0  0  0  0  0  0  0  0
   23.4830  -39.5970    4.4670 C   0  0  0  0  0  0  0  0  0  0  0  0
   23.2770  -39.0760    3.2040 C   0  0  0  0  0  0  0  0  0  0  0  0
   22.2150  -30.5800    3.5190 C   0  0  0  0  0  0  0  0  0  0  0  0
   22.5910  -30.8800    4.9720 C   0  0  0  0  0  0  0  0  0  0  0  0
   22.7310  -32.3920    5.2320 C   0  0  0  0  0  0  0  0  0  0  0  0
   21.4640  -33.0440    5.7340 C   0  0  0  0  0  0  0  0  0  0  0  0
   20.9400  -31.3230    1.6720 C   0  0  0  0  0  0  0  0  0  0  0  0
   20.4580  -33.1690    4.5640 C   0  0  0  0  0  0  0  0  0  0  0  0
   20.2300  -31.8890    3.9060 C   0  0  0  0  0  0  0  0  0  0  0  0
   20.6100  -31.5520   -0.5160 C   0  0  0  0  0  0  0  0  0  0  0  0
   22.0120  -34.2660   -0.2760 C   0  0  0  0  0  0  0  0  0  0  0  0
   23.1280  -39.9150    2.1610 F   0  0  0  0  0  0  0  0  0  0  0  0
   23.3300  -35.5200    3.9570 F   0  0  0  0  0  0  0  0  0  0  0  0
   22.6050  -35.9440    1.3780 N   0  0  0  0  0  0  0  0  0  0  0  0
   22.5730  -36.5750   -2.1710 N   0  0  0  0  0  0  0  0  0  0  0  0
   21.3370  -31.5870    2.9870 N   0  0  0  0  0  0  0  0  0  0  0  0
   23.7870  -32.5820    6.2410 N   0  0  0  0  0  0  0  0  0  0  0  0
   20.1630  -30.3730   -0.1810 N   0  0  0  0  0  0  0  0  0  0  0  0
   21.6700  -33.4610    0.7520 N   0  0  0  0  0  0  0  0  0  0  0  0
   21.9190  -33.9280   -1.4430 O   0  0  0  0  0  0  0  0  0  0  0  0
   23.1330  -38.0570    0.1330 S   0  0  0  0  0  0  0  0  0  0  0  0
  4  1  1  0
 17  1  1  0
 28  1  1  0
  5  2  2  0
 21  2  1  0
 24  2  1  0
 17  3  2  0
 20  3  1  0
 29  3  1  0
 25  5  1  0
 31  5  1  0
  7  6  1  0
 24  6  2  0
 31  6  1  0
  8  7  2  0
 12  7  1  0
  9  8  1  0
 23  8  1  0
 10  9  2  0
 11 10  1  0
 12 11  2  0
 22 12  1  0
 14 13  1  0
 26 13  1  0
 15 14  1  0
 16 15  1  0
 27 15  1  0
 18 16  1  0
 26 17  1  0
 19 18  1  0
 26 19  1  0
 28 20  2  0
 29 21  1  0
 30 21  2  0
A    1
N2
A    2
C10
A    3
C4
A    4
C1
A    5
C11
A    6
C13
A    7
C15
A    8
C16
A    9
C17
A   10
C18
A   11
C19
A   12
C20
A   13
C25
A   14
C26
A   15
C27
A   16
C29
A   17
C3
A   18
C31
A   19
C32
A   20
C5
A   21
C8
A   22
F21
A   23
F22
A   24
N14
A   25
N23
A   26
N24
A   27
N34
A   28
N6
A   29
N7
A   30
O9
A   31
S12
M  END
>  <Id>  (15) 
6NO8_KUY_A_401

>  <ChainId>  (15) 
A

>  <AsymId>  (15) 
B

>  <SeqNum>  (15) 
401

>  <Name>  (15) 
5-amino-N-{5-[(4S)-4-aminoazepan-1-yl]-1-methyl-1H-pyrazol-4-yl}-2-(2,6-difluorophenyl)-1,3-thiazole-4-carboxamide

>  <SystematicName>  (15) 
5-azanyl-~{N}-[5-[(4~{S})-4-azanylazepan-1-yl]-1-methyl-pyrazol-4-yl]-2-[2,6-bis(fluoranyl)phenyl]-1,3-thiazole-4-carboxamide

>  <Synonyms>  (15) 


>  <Type>  (15) 
NON-POLYMER

>  <Formula>  (15) 
C20 H23 F2 N7 O S

>  <ObservedFormula>  (15) 
C20 S F2 N7 O

>  <MolecularWeight>  (15) 
447.505

>  <ModifiedDate>  (15) 
2019-11-22

>  <Parent>  (15) 


>  <OneLetterCode>  (15) 


>  <SubcomponentList>  (15) 


>  <AmbiguousFlag>  (15) 
N

>  <InsertionCode>  (15) 


>  <InstanceId>  (15) 
6NO8_KUY_A_401

>  <ChemCompId>  (15) 
KUY

>  <PdbId>  (15) 
6NO8

>  <ResidueNumber>  (15) 
401

>  <InChI>  (15) 
InChI=1S/C20H23F2N7OS/c1-28-20(29-8-3-4-11(23)7-9-29)14(10-25-28)26-18(30)16-17(24)31-19(27-16)15-12(21)5-2-6-13(15)22/h2,5-6,10-11H,3-4,7-9,23-24H2,1H3,(H,26,30)/t11-/m0/s1

>  <InChIKey>  (15) 
JEVIKKKBDOXJFA-NSHDSACASA-N

>  <SMILES>  (15) 
Cn1c(c(cn1)NC(=O)c2c(sc(n2)c3c(cccc3F)F)N)N4CCC[C@@H](CC4)N

>  <MissingHeavyAtoms>  (15) 
0

>  <Model>  (15) 
1

>  <AltIds>  (15) 


>  <pKI>  (15) 
10.57

>  <ChemblID>  (15) 
CHEMBL3652626

>  <standardized_canonical_smiles>  (15) 
Cn1ncc(NC(=O)c2nc(-c3c(F)cccc3F)sc2N)c1N1CCCC(N)CC1

$$$$
5DWR_5H7_A_401
     RDKit          3D

 32 35  0  0  0  0  0  0  0  0999 V2000
  -40.9660   -1.8740    4.5420 C   0  0  0  0  0  0  0  0  0  0  0  0
  -40.8620   -3.0170    5.5460 C   0  0  0  0  0  0  0  0  0  0  0  0
  -40.7410   -4.4010    4.8800 C   0  0  0  0  0  0  0  0  0  0  0  0
  -39.0090   -2.8770    0.4690 C   0  0  0  0  0  0  0  0  0  0  0  0
  -40.9940   -2.5110   -1.0020 C   0  0  0  0  0  0  0  0  0  0  0  0
  -42.4570   -2.2000   -0.8760 C   0  0  0  0  0  0  0  0  0  0  0  0
  -43.2690   -2.2150   -2.0050 C   0  0  0  0  0  0  0  0  0  0  0  0
  -44.6380   -2.1050   -1.8270 C   0  0  0  0  0  0  0  0  0  0  0  0
  -45.1360   -1.9630   -0.5540 C   0  0  0  0  0  0  0  0  0  0  0  0
  -44.2610   -1.9200    0.5320 C   0  0  0  0  0  0  0  0  0  0  0  0
  -44.7350   -1.7710    1.9400 C   0  0  0  0  0  0  0  0  0  0  0  0
  -45.6500   -0.7960    2.3210 C   0  0  0  0  0  0  0  0  0  0  0  0
  -46.1530   -0.6720    3.5920 C   0  0  0  0  0  0  0  0  0  0  0  0
  -45.7270   -1.5680    4.5600 C   0  0  0  0  0  0  0  0  0  0  0  0
  -44.8000   -2.5500    4.2510 C   0  0  0  0  0  0  0  0  0  0  0  0
  -44.3300   -2.6200    2.9600 C   0  0  0  0  0  0  0  0  0  0  0  0
  -43.3970   -3.5570    2.6630 F   0  0  0  0  0  0  0  0  0  0  0  0
  -46.0540    0.0830    1.3780 F   0  0  0  0  0  0  0  0  0  0  0  0
  -46.4730   -1.8840   -0.3750 F   0  0  0  0  0  0  0  0  0  0  0  0
  -42.9350   -2.0310    0.3670 N   0  0  0  0  0  0  0  0  0  0  0  0
  -40.5010   -2.8530   -2.0760 O   0  0  0  0  0  0  0  0  0  0  0  0
  -40.3140   -2.4310    0.1650 N   0  0  0  0  0  0  0  0  0  0  0  0
  -37.9850   -2.8640   -0.4850 C   0  0  0  0  0  0  0  0  0  0  0  0
  -36.7290   -3.2430   -0.2500 N   0  0  0  0  0  0  0  0  0  0  0  0
  -36.4530   -3.6660    0.9820 C   0  0  0  0  0  0  0  0  0  0  0  0
  -37.3800   -3.7140    2.0020 C   0  0  0  0  0  0  0  0  0  0  0  0
  -38.6900   -3.3130    1.7630 C   0  0  0  0  0  0  0  0  0  0  0  0
  -39.7190   -3.2860    2.8850 C   0  0  0  0  0  0  0  0  0  0  0  0
  -39.5270   -4.3670    3.9490 C   0  0  0  0  0  0  0  0  0  0  0  0
  -40.5840   -5.4540    5.8860 N   0  0  0  0  0  0  0  0  0  0  0  0
  -39.7900   -1.9210    3.5720 C   0  0  0  0  0  0  0  0  0  0  0  0
  -41.0440   -0.5240    5.2440 C   0  0  0  0  0  0  0  0  0  0  0  0
  2  1  1  0
 31  1  1  0
 32  1  1  0
  3  2  1  0
 29  3  1  0
 30  3  1  0
 22  4  1  0
 23  4  2  0
 27  4  1  0
  6  5  1  0
 21  5  2  0
 22  5  1  0
  7  6  2  0
 20  6  1  0
  8  7  1  0
  9  8  2  0
 10  9  1  0
 19  9  1  0
 11 10  1  0
 20 10  2  0
 12 11  2  0
 16 11  1  0
 13 12  1  0
 18 12  1  0
 14 13  2  0
 15 14  1  0
 16 15  2  0
 17 16  1  0
 24 23  1  0
 25 24  2  0
 26 25  1  0
 27 26  2  0
 28 27  1  0
 29 28  1  0
 31 28  1  0
A    1
C1
A    2
C2
A    3
C3
A    4
C11
A    5
C12
A    6
C13
A    7
C14
A    8
C15
A    9
C16
A   10
C17
A   11
C18
A   12
C19
A   13
C20
A   14
C21
A   15
C22
A   16
C23
A   17
F2
A   18
F1
A   19
F
A   20
N3
A   21
O
A   22
N2
A   23
C10
A   24
N1
A   25
C9
A   26
C8
A   27
C7
A   28
C5
A   29
C4
A   30
N
A   31
C6
A   32
C
M  END
>  <Id>  (16) 
5DWR_5H7_A_401

>  <ChainId>  (16) 
A

>  <AsymId>  (16) 
B

>  <SeqNum>  (16) 
401

>  <Name>  (16) 
N-{4-[(1R,3S,5S)-3-amino-5-methylcyclohexyl]pyridin-3-yl}-6-(2,6-difluorophenyl)-5-fluoropyridine-2-carboxamide

>  <SystematicName>  (16) 
N-[4-[(1R,3S,5S)-3-azanyl-5-methyl-cyclohexyl]pyridin-3-yl]-6-[2,6-bis(fluoranyl)phenyl]-5-fluoranyl-pyridine-2-carboxamide

>  <Synonyms>  (16) 


>  <Type>  (16) 
NON-POLYMER

>  <Formula>  (16) 
C24 H23 F3 N4 O

>  <ObservedFormula>  (16) 
C24 F3 N4 O

>  <MolecularWeight>  (16) 
440.461

>  <ModifiedDate>  (16) 
2015-11-06

>  <Parent>  (16) 


>  <OneLetterCode>  (16) 


>  <SubcomponentList>  (16) 


>  <AmbiguousFlag>  (16) 
N

>  <InsertionCode>  (16) 


>  <InstanceId>  (16) 
5DWR_5H7_A_401

>  <ChemCompId>  (16) 
5H7

>  <PdbId>  (16) 
5DWR

>  <ResidueNumber>  (16) 
401

>  <InChI>  (16) 
InChI=1S/C24H23F3N4O/c1-13-9-14(11-15(28)10-13)16-7-8-29-12-21(16)31-24(32)20-6-5-19(27)23(30-20)22-17(25)3-2-4-18(22)26/h2-8,12-15H,9-11,28H2,1H3,(H,31,32)/t13-,14+,15-/m0/s1

>  <InChIKey>  (16) 
VRQXRVAKPDCRCI-ZNMIVQPWSA-N

>  <SMILES>  (16) 
C[C@H]1C[C@H](C[C@H](C1)N)c2ccncc2NC(=O)c3ccc(c(n3)c4c(cccc4F)F)F

>  <MissingHeavyAtoms>  (16) 
0

>  <Model>  (16) 
1

>  <AltIds>  (16) 


>  <pKI>  (16) 
9.0

>  <ChemblID>  (16) 
-

>  <standardized_canonical_smiles>  (16) 
C[C@@H]1C[C@H](N)C[C@H](c2ccncc2NC(=O)c2ccc(F)c(-c3c(F)cccc3F)n2)C1

$$$$
5V82_96Y_A_401
     RDKit          3D

 30 34  0  0  0  0  0  0  0  0999 V2000
  -22.2780   34.8120   -1.0400 C   0  0  0  0  0  0  0  0  0  0  0  0
  -21.2850   30.9530    0.0180 C   0  0  0  0  0  0  0  0  0  0  0  0
  -22.6750   36.0760   -1.4610 C   0  0  0  0  0  0  0  0  0  0  0  0
  -21.5570   32.5350   -1.6120 C   0  0  0  0  0  0  0  0  0  0  0  0
  -21.4410   30.5130    1.4500 C   0  0  0  0  0  0  0  0  0  0  0  0
  -20.7290   30.0990   -0.9170 C   0  0  0  0  0  0  0  0  0  0  0  0
  -20.6070   30.4800   -2.1810 N   0  0  0  0  0  0  0  0  0  0  0  0
  -20.9970   31.6800   -2.5650 C   0  0  0  0  0  0  0  0  0  0  0  0
  -21.6780   32.1630   -0.3460 N   0  0  0  0  0  0  0  0  0  0  0  0
  -21.9990   33.8670   -2.0160 C   0  0  0  0  0  0  0  0  0  0  0  0
  -22.7740   36.3130   -2.8460 C   0  0  0  0  0  0  0  0  0  0  0  0
  -22.4690   35.2920   -3.7530 C   0  0  0  0  0  0  0  0  0  0  0  0
  -22.1080   34.1140   -3.3140 N   0  0  0  0  0  0  0  0  0  0  0  0
  -23.2110   37.6910   -2.9990 C   0  0  0  0  0  0  0  0  0  0  0  0
  -23.3610   38.1870   -1.8070 N   0  0  0  0  0  0  0  0  0  0  0  0
  -23.0230   37.2430   -0.8350 N   0  0  0  0  0  0  0  0  0  0  0  0
  -23.1460   37.4650    0.5380 C   0  0  0  0  0  0  0  0  0  0  0  0
  -23.3300   38.7680    0.9940 C   0  0  0  0  0  0  0  0  0  0  0  0
  -23.4950   38.9800    2.3540 C   0  0  0  0  0  0  0  0  0  0  0  0
  -23.5060   37.8850    3.2100 C   0  0  0  0  0  0  0  0  0  0  0  0
  -23.3470   36.6130    2.6830 C   0  0  0  0  0  0  0  0  0  0  0  0
  -23.1850   36.4400    1.3820 N   0  0  0  0  0  0  0  0  0  0  0  0
  -23.3860   35.4300    3.6150 C   0  0  0  0  0  0  0  0  0  0  0  0
  -23.8880   34.1740    2.8740 C   0  0  0  0  0  0  0  0  0  0  0  0
  -23.9690   33.0410    3.8060 N   0  0  0  0  0  0  0  0  0  0  0  0
  -22.6340   32.7040    4.3170 C   0  0  0  0  0  0  0  0  0  0  0  0
  -22.0670   33.9030    5.0830 C   0  0  0  0  0  0  0  0  0  0  0  0
  -22.0020   35.1490    4.1850 C   0  0  0  0  0  0  0  0  0  0  0  0
  -21.1150   34.9420    3.1270 F   0  0  0  0  0  0  0  0  0  0  0  0
  -21.6160   36.2560    4.9490 F   0  0  0  0  0  0  0  0  0  0  0  0
  3  1  2  0
 10  1  1  0
  5  2  1  0
  6  2  2  0
  9  2  1  0
 11  3  1  0
 16  3  1  0
  8  4  1  0
  9  4  2  0
 10  4  1  0
  7  6  1  0
  8  7  2  0
 13 10  2  0
 12 11  2  0
 14 11  1  0
 13 12  1  0
 15 14  2  0
 16 15  1  0
 17 16  1  0
 18 17  2  0
 22 17  1  0
 19 18  1  0
 20 19  2  0
 21 20  1  0
 22 21  2  0
 23 21  1  0
 24 23  1  0
 28 23  1  0
 25 24  1  0
 26 25  1  0
 27 26  1  0
 28 27  1  0
 29 28  1  0
 30 28  1  0
A    1
C9
A    2
C2
A    3
C10
A    4
C6
A    5
C1
A    6
C3
A    7
N4
A    8
C5
A    9
N7
A   10
C8
A   11
C11
A   12
C12
A   13
N13
A   14
C14
A   15
N15
A   16
N16
A   17
C17
A   18
C18
A   19
C19
A   20
C20
A   21
C21
A   22
N22
A   23
C23
A   24
C24
A   25
N25
A   26
C26
A   27
C27
A   28
C28
A   29
F29
A   30
F30
M  END
>  <Id>  (17) 
5V82_96Y_A_401

>  <ChainId>  (17) 
A

>  <AsymId>  (17) 
B

>  <SeqNum>  (17) 
401

>  <Name>  (17) 
1-{6-[(3R)-4,4-difluoropiperidin-3-yl]pyridin-2-yl}-6-(6-methylpyrazin-2-yl)-1H-pyrazolo[4,3-c]pyridine

>  <SystematicName>  (17) 
1-[6-[(3~{R})-4,4-bis(fluoranyl)piperidin-3-yl]pyridin-2-yl]-6-(6-methylpyrazin-2-yl)pyrazolo[4,3-c]pyridine

>  <Synonyms>  (17) 


>  <Type>  (17) 
NON-POLYMER

>  <Formula>  (17) 
C21 H19 F2 N7

>  <ObservedFormula>  (17) 
C21 F2 N7

>  <MolecularWeight>  (17) 
407.419

>  <ModifiedDate>  (17) 
2017-05-05

>  <Parent>  (17) 


>  <OneLetterCode>  (17) 


>  <SubcomponentList>  (17) 


>  <AmbiguousFlag>  (17) 
N

>  <InsertionCode>  (17) 


>  <InstanceId>  (17) 
5V82_96Y_A_401

>  <ChemCompId>  (17) 
96Y

>  <PdbId>  (17) 
5V82

>  <ResidueNumber>  (17) 
401

>  <InChI>  (17) 
InChI=1S/C21H19F2N7/c1-13-8-25-12-18(28-13)17-7-19-14(9-26-17)10-27-30(19)20-4-2-3-16(29-20)15-11-24-6-5-21(15,22)23/h2-4,7-10,12,15,24H,5-6,11H2,1H3/t15-/m1/s1

>  <InChIKey>  (17) 
OIZRMKSUYVZCDN-OAHLLOKOSA-N

>  <SMILES>  (17) 
Cc1cncc(n1)c2cc3c(cn2)cnn3c4cccc(n4)[C@H]5CNCCC5(F)F

>  <MissingHeavyAtoms>  (17) 
0

>  <Model>  (17) 
1

>  <AltIds>  (17) 


>  <pKI>  (17) 
10.15

>  <ChemblID>  (17) 
-

>  <standardized_canonical_smiles>  (17) 
Cc1cncc(-c2cc3c(cn2)cnn3-c2cccc([C@H]3CNCCC3(F)F)n2)n1

$$$$
5DIA_5E6_A_401
     RDKit          3D

 29 33  0  0  0  0  0  0  0  0999 V2000
   21.5690  -34.2560    4.2810 C   0  0  0  0  0  0  0  0  0  0  0  0
   23.6920  -38.8930    1.8920 C   0  0  0  0  0  0  0  0  0  0  0  0
   21.1960  -34.0680    5.7290 C   0  0  0  0  0  0  0  0  0  0  0  0
   23.5950  -38.2780    4.1550 C   0  0  0  0  0  0  0  0  0  0  0  0
   23.7510  -39.2420    3.2110 C   0  0  0  0  0  0  0  0  0  0  0  0
   23.4510  -37.6010    1.5470 C   0  0  0  0  0  0  0  0  0  0  0  0
   23.3210  -36.7160    2.4820 N   0  0  0  0  0  0  0  0  0  0  0  0
   23.3880  -36.9910    3.7360 C   0  0  0  0  0  0  0  0  0  0  0  0
   23.2630  -35.9770    4.6520 N   0  0  0  0  0  0  0  0  0  0  0  0
   23.0270  -34.6290    4.1900 C   0  0  0  0  0  0  0  0  0  0  0  0
   22.0030  -32.9010    6.2520 C   0  0  0  0  0  0  0  0  0  0  0  0
   23.5040  -33.1650    6.2200 C   0  0  0  0  0  0  0  0  0  0  0  0
   23.9260  -33.5760    4.8280 C   0  0  0  0  0  0  0  0  0  0  0  0
   24.2630  -31.9920    6.6450 N   0  0  0  0  0  0  0  0  0  0  0  0
   23.3920  -37.2070    0.1250 C   0  0  0  0  0  0  0  0  0  0  0  0
   23.0080  -35.9120   -0.3890 C   0  0  0  0  0  0  0  0  0  0  0  0
   22.6050  -34.7110    0.1600 C   0  0  0  0  0  0  0  0  0  0  0  0
   22.3230  -33.6540   -0.6650 C   0  0  0  0  0  0  0  0  0  0  0  0
   22.4540  -33.7850   -1.9550 N   0  0  0  0  0  0  0  0  0  0  0  0
   22.8120  -34.8940   -2.4990 C   0  0  0  0  0  0  0  0  0  0  0  0
   23.1170  -36.0000   -1.7550 C   0  0  0  0  0  0  0  0  0  0  0  0
   23.5160  -37.2430   -2.0280 N   0  0  0  0  0  0  0  0  0  0  0  0
   23.6770  -37.9400   -0.8820 N   0  0  0  0  0  0  0  0  0  0  0  0
   21.8890  -32.3510   -0.1360 C   0  0  0  0  0  0  0  0  0  0  0  0
   22.0110  -32.0160    1.2010 C   0  0  0  0  0  0  0  0  0  0  0  0
   21.5900  -30.7860    1.6090 C   0  0  0  0  0  0  0  0  0  0  0  0
   21.0760  -29.9270    0.6810 C   0  0  0  0  0  0  0  0  0  0  0  0
   20.9730  -30.2680   -0.5670 N   0  0  0  0  0  0  0  0  0  0  0  0
   21.3590  -31.4180   -0.9970 C   0  0  0  0  0  0  0  0  0  0  0  0
  3  1  1  0
 10  1  1  0
  5  2  2  0
  6  2  1  0
 11  3  1  0
  5  4  1  0
  8  4  2  0
  7  6  2  0
 15  6  1  0
  8  7  1  0
  9  8  1  0
 10  9  1  0
 13 10  1  0
 12 11  1  0
 13 12  1  0
 14 12  1  0
 16 15  1  0
 23 15  2  0
 17 16  2  0
 21 16  1  0
 18 17  1  0
 19 18  2  0
 24 18  1  0
 20 19  1  0
 21 20  2  0
 22 21  1  0
 23 22  1  0
 25 24  2  0
 29 24  1  0
 26 25  1  0
 27 26  2  0
 28 27  1  0
 29 28  2  0
A    1
C9
A    2
C2
A    3
C10
A    4
C6
A    5
C1
A    6
C3
A    7
N4
A    8
C5
A    9
N7
A   10
C8
A   11
C11
A   12
C12
A   13
C13
A   14
N14
A   15
C15
A   16
C16
A   17
C17
A   18
C18
A   19
N19
A   20
C20
A   21
C21
A   22
N22
A   23
N24
A   24
C25
A   25
C26
A   26
C27
A   27
C28
A   28
N29
A   29
C30
M  END
>  <Id>  (18) 
5DIA_5E6_A_401

>  <ChainId>  (18) 
A

>  <AsymId>  (18) 
B

>  <SeqNum>  (18) 
401

>  <Name>  (18) 
(1S,3S)-N-{6-[5-(pyridin-3-yl)-1H-pyrazolo[3,4-c]pyridin-3-yl]pyridin-2-yl}cyclohexane-1,3-diamine

>  <SystematicName>  (18) 
(1S,3S)-N1-[6-(5-pyridin-3-yl-1H-pyrazolo[3,4-c]pyridin-3-yl)pyridin-2-yl]cyclohexane-1,3-diamine

>  <Synonyms>  (18) 


>  <Type>  (18) 
NON-POLYMER

>  <Formula>  (18) 
C22 H23 N7

>  <ObservedFormula>  (18) 
C22 N7

>  <MolecularWeight>  (18) 
385.465

>  <ModifiedDate>  (18) 
2015-10-23

>  <Parent>  (18) 


>  <OneLetterCode>  (18) 


>  <SubcomponentList>  (18) 


>  <AmbiguousFlag>  (18) 
N

>  <InsertionCode>  (18) 


>  <InstanceId>  (18) 
5DIA_5E6_A_401

>  <ChemCompId>  (18) 
5E6

>  <PdbId>  (18) 
5DIA

>  <ResidueNumber>  (18) 
401

>  <InChI>  (18) 
InChI=1S/C22H23N7/c23-15-5-1-6-16(10-15)26-21-8-2-7-18(27-21)22-17-11-19(14-4-3-9-24-12-14)25-13-20(17)28-29-22/h2-4,7-9,11-13,15-16H,1,5-6,10,23H2,(H,26,27)(H,28,29)/t15-,16-/m0/s1

>  <InChIKey>  (18) 
FWMVELRLCYRLLJ-HOTGVXAUSA-N

>  <SMILES>  (18) 
c1cc(nc(c1)N[C@H]2CCC[C@@H](C2)N)c3c4cc(ncc4[nH]n3)c5cccnc5

>  <MissingHeavyAtoms>  (18) 
0

>  <Model>  (18) 
1

>  <AltIds>  (18) 


>  <pKI>  (18) 
9.4

>  <ChemblID>  (18) 
-

>  <standardized_canonical_smiles>  (18) 
N[C@H]1CCC[C@H](Nc2cccc(-c3n[nH]c4cnc(-c5cccnc5)cc34)n2)C1

$$$$
4K18_1OB_A_402
     RDKit          3D

 29 32  0  0  0  0  0  0  0  0999 V2000
  -18.1740  -35.6130    5.2680 C   0  0  0  0  0  0  0  0  0  0  0  0
  -18.5000  -36.9440    5.4710 C   0  0  0  0  0  0  0  0  0  0  0  0
  -19.8300  -37.3080    5.7080 C   0  0  0  0  0  0  0  0  0  0  0  0
  -20.8230  -36.3230    5.7260 C   0  0  0  0  0  0  0  0  0  0  0  0
  -20.4750  -34.9980    5.5140 C   0  0  0  0  0  0  0  0  0  0  0  0
  -19.1570  -34.6410    5.2790 C   0  0  0  0  0  0  0  0  0  0  0  0
  -18.7850  -33.1960    5.0640 C   0  0  0  0  0  0  0  0  0  0  0  0
  -18.1040  -32.9240    3.7450 C   0  0  0  0  0  0  0  0  0  0  0  0
  -17.2830  -31.8040    3.6440 C   0  0  0  0  0  0  0  0  0  0  0  0
  -16.6640  -31.5480    2.4510 C   0  0  0  0  0  0  0  0  0  0  0  0
  -16.8720  -32.3630    1.3890 N   0  0  0  0  0  0  0  0  0  0  0  0
  -17.6910  -33.4380    1.5310 C   0  0  0  0  0  0  0  0  0  0  0  0
  -18.2920  -33.7070    2.6940 N   0  0  0  0  0  0  0  0  0  0  0  0
  -17.7000  -34.0760    0.2850 C   0  0  0  0  0  0  0  0  0  0  0  0
  -16.8830  -33.3420   -0.5850 C   0  0  0  0  0  0  0  0  0  0  0  0
  -16.3850  -32.3330    0.0780 N   0  0  0  0  0  0  0  0  0  0  0  0
  -18.4850  -35.2510   -0.0380 C   0  0  0  0  0  0  0  0  0  0  0  0
  -18.4420  -35.6960   -1.1710 O   0  0  0  0  0  0  0  0  0  0  0  0
  -19.2610  -35.7310    0.9630 N   0  0  0  0  0  0  0  0  0  0  0  0
  -20.1380  -36.8230    0.9390 C   0  0  0  0  0  0  0  0  0  0  0  0
  -20.6640  -37.2430    2.1570 C   0  0  0  0  0  0  0  0  0  0  0  0
  -21.5390  -38.3100    2.2120 C   0  0  0  0  0  0  0  0  0  0  0  0
  -21.8950  -38.9580    1.0410 C   0  0  0  0  0  0  0  0  0  0  0  0
  -21.3790  -38.5500   -0.1760 C   0  0  0  0  0  0  0  0  0  0  0  0
  -20.5070  -37.4770   -0.2310 C   0  0  0  0  0  0  0  0  0  0  0  0
  -22.7450  -40.0030    1.0830 F   0  0  0  0  0  0  0  0  0  0  0  0
  -15.8660  -30.4810    2.2770 O   0  0  0  0  0  0  0  0  0  0  0  0
  -20.1680  -38.6770    5.9250 C   0  0  0  0  0  0  0  0  0  0  0  0
  -20.4280  -39.7680    6.0960 N   0  0  0  0  0  0  0  0  0  0  0  0
  2  1  2  0
  6  1  1  0
  3  2  1  0
  4  3  2  0
 28  3  1  0
  5  4  1  0
  6  5  2  0
  7  6  1  0
  8  7  1  0
  9  8  1  0
 13  8  2  0
 10  9  2  0
 11 10  1  0
 27 10  1  0
 12 11  1  0
 16 11  1  0
 13 12  1  0
 14 12  2  0
 15 14  1  0
 17 14  1  0
 16 15  2  0
 18 17  2  0
 19 17  1  0
 20 19  1  0
 21 20  2  0
 25 20  1  0
 22 21  1  0
 23 22  2  0
 24 23  1  0
 26 23  1  0
 25 24  2  0
 29 28  3  0
A    1
C1
A    2
C2
A    3
C3
A    4
C4
A    5
C5
A    6
C6
A    7
C7
A    8
C8
A    9
C9
A   10
C10
A   11
N11
A   12
C12
A   13
N13
A   14
C14
A   15
C15
A   16
N16
A   17
C17
A   18
O18
A   19
N19
A   20
C20
A   21
C21
A   22
C22
A   23
C23
A   24
C24
A   25
C25
A   26
F26
A   27
O27
A   28
C28
A   29
N29
M  END
>  <Id>  (19) 
4K18_1OB_A_402

>  <ChainId>  (19) 
A

>  <AsymId>  (19) 
C

>  <SeqNum>  (19) 
402

>  <Name>  (19) 
5-(4-cyanobenzyl)-N-(4-fluorophenyl)-7-hydroxypyrazolo[1,5-a]pyrimidine-3-carboxamide

>  <SystematicName>  (19) 
5-[(4-cyanophenyl)methyl]-N-(4-fluorophenyl)-7-oxidanyl-pyrazolo[1,5-a]pyrimidine-3-carboxamide

>  <Synonyms>  (19) 


>  <Type>  (19) 
NON-POLYMER

>  <Formula>  (19) 
C21 H14 F N5 O2

>  <ObservedFormula>  (19) 
C21 F N5 O2

>  <MolecularWeight>  (19) 
387.367

>  <ModifiedDate>  (19) 
2013-05-10

>  <Parent>  (19) 


>  <OneLetterCode>  (19) 


>  <SubcomponentList>  (19) 


>  <AmbiguousFlag>  (19) 
N

>  <InsertionCode>  (19) 


>  <InstanceId>  (19) 
4K18_1OB_A_402

>  <ChemCompId>  (19) 
1OB

>  <PdbId>  (19) 
4K18

>  <ResidueNumber>  (19) 
402

>  <InChI>  (19) 
InChI=1S/C21H14FN5O2/c22-15-5-7-16(8-6-15)26-21(29)18-12-24-27-19(28)10-17(25-20(18)27)9-13-1-3-14(11-23)4-2-13/h1-8,10,12,28H,9H2,(H,26,29)

>  <InChIKey>  (19) 
GVDYBVYAFKPQRT-UHFFFAOYSA-N

>  <SMILES>  (19) 
c1cc(ccc1Cc2cc(n3c(n2)c(cn3)C(=O)Nc4ccc(cc4)F)O)C#N

>  <MissingHeavyAtoms>  (19) 
0

>  <Model>  (19) 
1

>  <AltIds>  (19) 


>  <pKI>  (19) 
8.96

>  <ChemblID>  (19) 
-

>  <standardized_canonical_smiles>  (19) 
N#Cc1ccc(Cc2cc(O)n3ncc(C(=O)Nc4ccc(F)cc4)c3n2)cc1

$$$$
4K0Y_1OA_A_401
     RDKit          3D

 26 29  0  0  0  0  0  0  0  0999 V2000
  -68.1470   45.2320    3.5330 C   0  0  0  0  0  0  0  0  0  0  0  0
  -68.6290   44.4120    4.5350 C   0  0  0  0  0  0  0  0  0  0  0  0
  -69.6850   43.5510    4.2590 C   0  0  0  0  0  0  0  0  0  0  0  0
  -70.2560   43.5140    2.9900 C   0  0  0  0  0  0  0  0  0  0  0  0
  -69.7770   44.3290    1.9860 C   0  0  0  0  0  0  0  0  0  0  0  0
  -68.7380   45.2130    2.2660 C   0  0  0  0  0  0  0  0  0  0  0  0
  -68.1640   46.0390    1.2960 N   0  0  0  0  0  0  0  0  0  0  0  0
  -68.4010   46.0360   -0.0370 C   0  0  0  0  0  0  0  0  0  0  0  0
  -69.1950   45.3050   -0.6080 O   0  0  0  0  0  0  0  0  0  0  0  0
  -67.5560   46.9450   -0.7910 C   0  0  0  0  0  0  0  0  0  0  0  0
  -67.4150   47.0330   -2.1900 C   0  0  0  0  0  0  0  0  0  0  0  0
  -66.5160   47.9540   -2.4500 N   0  0  0  0  0  0  0  0  0  0  0  0
  -66.0100   48.4710   -1.2530 N   0  0  0  0  0  0  0  0  0  0  0  0
  -66.6400   47.8440   -0.2110 C   0  0  0  0  0  0  0  0  0  0  0  0
  -66.3370   48.1430    1.0590 N   0  0  0  0  0  0  0  0  0  0  0  0
  -65.4220   49.0610    1.3370 C   0  0  0  0  0  0  0  0  0  0  0  0
  -64.7460   49.7130    0.2990 C   0  0  0  0  0  0  0  0  0  0  0  0
  -65.0590   49.4160   -0.9960 C   0  0  0  0  0  0  0  0  0  0  0  0
  -64.4160   50.0280   -2.0100 O   0  0  0  0  0  0  0  0  0  0  0  0
  -65.0190   49.4020    2.7520 C   0  0  0  0  0  0  0  0  0  0  0  0
  -66.0150   48.8780    3.7860 C   0  0  0  0  0  0  0  0  0  0  0  0
  -65.4390   49.1700    5.1750 C   0  0  0  0  0  0  0  0  0  0  0  0
  -64.2090   48.3840    5.3670 N   0  0  0  0  0  0  0  0  0  0  0  0
  -63.1580   48.8220    4.4320 C   0  0  0  0  0  0  0  0  0  0  0  0
  -63.6620   48.7030    2.9850 C   0  0  0  0  0  0  0  0  0  0  0  0
  -70.1660   42.7380    5.2290 F   0  0  0  0  0  0  0  0  0  0  0  0
  2  1  2  0
  6  1  1  0
  3  2  1  0
  4  3  2  0
 26  3  1  0
  5  4  1  0
  6  5  2  0
  7  6  1  0
  8  7  1  0
  9  8  2  0
 10  8  1  0
 11 10  1  0
 14 10  2  0
 12 11  2  0
 13 12  1  0
 14 13  1  0
 18 13  1  0
 15 14  1  0
 16 15  2  0
 17 16  1  0
 20 16  1  0
 18 17  2  0
 19 18  1  0
 21 20  1  0
 25 20  1  0
 22 21  1  0
 23 22  1  0
 24 23  1  0
 25 24  1  0
A    1
C1
A    2
C2
A    3
C3
A    4
C4
A    5
C5
A    6
C6
A    7
N7
A    8
C8
A    9
O9
A   10
C10
A   11
C11
A   12
N12
A   13
N13
A   14
C14
A   15
N15
A   16
C16
A   17
C17
A   18
C18
A   19
O19
A   20
C20
A   21
C21
A   22
C22
A   23
N23
A   24
C24
A   25
C25
A   26
F26
M  END
>  <Id>  (20) 
4K0Y_1OA_A_401

>  <ChainId>  (20) 
A

>  <AsymId>  (20) 
B

>  <SeqNum>  (20) 
401

>  <Name>  (20) 
N-(4-fluorophenyl)-7-hydroxy-5-(piperidin-4-yl)pyrazolo[1,5-a]pyrimidine-3-carboxamide

>  <SystematicName>  (20) 
N-(4-fluorophenyl)-7-oxidanyl-5-piperidin-4-yl-pyrazolo[1,5-a]pyrimidine-3-carboxamide

>  <Synonyms>  (20) 


>  <Type>  (20) 
NON-POLYMER

>  <Formula>  (20) 
C18 H18 F N5 O2

>  <ObservedFormula>  (20) 
C18 F N5 O2

>  <MolecularWeight>  (20) 
355.366

>  <ModifiedDate>  (20) 
2013-05-10

>  <Parent>  (20) 


>  <OneLetterCode>  (20) 


>  <SubcomponentList>  (20) 


>  <AmbiguousFlag>  (20) 
N

>  <InsertionCode>  (20) 


>  <InstanceId>  (20) 
4K0Y_1OA_A_401

>  <ChemCompId>  (20) 
1OA

>  <PdbId>  (20) 
4K0Y

>  <ResidueNumber>  (20) 
401

>  <InChI>  (20) 
InChI=1S/C18H18FN5O2/c19-12-1-3-13(4-2-12)22-18(26)14-10-21-24-16(25)9-15(23-17(14)24)11-5-7-20-8-6-11/h1-4,9-11,20,25H,5-8H2,(H,22,26)

>  <InChIKey>  (20) 
SBDJADVTLNKDBC-UHFFFAOYSA-N

>  <SMILES>  (20) 
c1cc(ccc1NC(=O)c2cnn3c2nc(cc3O)C4CCNCC4)F

>  <MissingHeavyAtoms>  (20) 
0

>  <Model>  (20) 
1

>  <AltIds>  (20) 


>  <pKI>  (20) 
7.82

>  <ChemblID>  (20) 
-

>  <standardized_canonical_smiles>  (20) 
O=C(Nc1ccc(F)cc1)c1cnn2c(O)cc(C3CCNCC3)nc12

$$$$
4K1B_1OC_A_402
     RDKit          3D

 37 42  0  0  0  0  0  0  0  0999 V2000
  -44.5610   -1.9820    2.4500 C   0  0  0  0  0  0  0  0  0  0  0  0
  -45.4940   -1.1210    2.9980 C   0  0  0  0  0  0  0  0  0  0  0  0
  -46.2500   -0.3130    2.1730 C   0  0  0  0  0  0  0  0  0  0  0  0
  -46.0830   -0.3560    0.7980 C   0  0  0  0  0  0  0  0  0  0  0  0
  -45.1360   -1.2320    0.2350 C   0  0  0  0  0  0  0  0  0  0  0  0
  -44.3800   -2.0420    1.0810 C   0  0  0  0  0  0  0  0  0  0  0  0
  -44.9090   -1.3200   -1.2340 C   0  0  0  0  0  0  0  0  0  0  0  0
  -43.6360   -1.5730   -1.7640 C   0  0  0  0  0  0  0  0  0  0  0  0
  -43.5100   -1.6400   -3.1590 C   0  0  0  0  0  0  0  0  0  0  0  0
  -42.3930   -1.8800   -4.0880 C   0  0  0  0  0  0  0  0  0  0  0  0
  -42.9080   -1.8260   -5.3360 C   0  0  0  0  0  0  0  0  0  0  0  0
  -44.2610   -1.5750   -5.2780 N   0  0  0  0  0  0  0  0  0  0  0  0
  -44.6550   -1.4570   -3.9700 C   0  0  0  0  0  0  0  0  0  0  0  0
  -45.8370   -1.2220   -3.4170 N   0  0  0  0  0  0  0  0  0  0  0  0
  -45.9830   -1.1590   -2.1130 C   0  0  0  0  0  0  0  0  0  0  0  0
  -41.0520   -2.1150   -3.7290 N   0  0  0  0  0  0  0  0  0  0  0  0
  -40.1090   -2.5850   -4.5840 C   0  0  0  0  0  0  0  0  0  0  0  0
  -40.3530   -2.8550   -5.7500 O   0  0  0  0  0  0  0  0  0  0  0  0
  -38.7430   -2.7950   -4.1110 C   0  0  0  0  0  0  0  0  0  0  0  0
  -37.6830   -3.3140   -4.8730 C   0  0  0  0  0  0  0  0  0  0  0  0
  -36.6160   -3.3620   -4.1260 N   0  0  0  0  0  0  0  0  0  0  0  0
  -36.9140   -2.8760   -2.8500 N   0  0  0  0  0  0  0  0  0  0  0  0
  -38.2370   -2.5170   -2.8280 C   0  0  0  0  0  0  0  0  0  0  0  0
  -38.7980   -2.0170   -1.7230 N   0  0  0  0  0  0  0  0  0  0  0  0
  -38.0710   -1.8500   -0.6290 C   0  0  0  0  0  0  0  0  0  0  0  0
  -36.7080   -2.2100   -0.6160 C   0  0  0  0  0  0  0  0  0  0  0  0
  -36.1400   -2.7200   -1.7320 C   0  0  0  0  0  0  0  0  0  0  0  0
  -38.6400   -1.3280    0.5160 N   0  0  0  0  0  0  0  0  0  0  0  0
  -40.0550   -1.5420    0.8210 C   0  0  0  0  0  0  0  0  0  0  0  0
  -40.0830   -2.5110    2.0000 C   0  0  0  0  0  0  0  0  0  0  0  0
  -40.8370   -1.9070    3.1940 C   0  0  0  0  0  0  0  0  0  0  0  0
  -40.7680   -2.9100    4.3400 C   0  0  0  0  0  0  0  0  0  0  0  0
  -41.4520   -4.1300    3.9100 N   0  0  0  0  0  0  0  0  0  0  0  0
  -40.7770   -4.7670    2.7640 C   0  0  0  0  0  0  0  0  0  0  0  0
  -40.7390   -3.8210    1.5620 C   0  0  0  0  0  0  0  0  0  0  0  0
  -39.9730   -4.3880    0.5760 F   0  0  0  0  0  0  0  0  0  0  0  0
  -46.8550    0.4630    0.0440 F   0  0  0  0  0  0  0  0  0  0  0  0
  2  1  2  0
  6  1  1  0
  3  2  1  0
  4  3  2  0
  5  4  1  0
 37  4  1  0
  6  5  2  0
  7  5  1  0
  8  7  2  0
 15  7  1  0
  9  8  1  0
 10  9  1  0
 13  9  2  0
 11 10  2  0
 16 10  1  0
 12 11  1  0
 13 12  1  0
 14 13  1  0
 15 14  2  0
 17 16  1  0
 18 17  2  0
 19 17  1  0
 20 19  1  0
 23 19  2  0
 21 20  2  0
 22 21  1  0
 23 22  1  0
 27 22  1  0
 24 23  1  0
 25 24  2  0
 26 25  1  0
 28 25  1  0
 27 26  2  0
 29 28  1  0
 30 29  1  0
 31 30  1  0
 35 30  1  0
 32 31  1  0
 33 32  1  0
 34 33  1  0
 35 34  1  0
 36 35  1  0
A    1
C1
A    2
C2
A    3
C3
A    4
C4
A    5
C5
A    6
C6
A    7
C7
A    8
C8
A    9
C9
A   10
C10
A   11
C11
A   12
N12
A   13
C14
A   14
N15
A   15
C16
A   16
N17
A   17
C18
A   18
O19
A   19
C20
A   20
C21
A   21
N22
A   22
N23
A   23
C24
A   24
N25
A   25
C26
A   26
C27
A   27
C28
A   28
N29
A   29
C30
A   30
C31
A   31
C32
A   32
C33
A   33
N34
A   34
C35
A   35
C36
A   36
F37
A   37
F38
M  END
>  <Id>  (21) 
4K1B_1OC_A_402

>  <ChainId>  (21) 
A

>  <AsymId>  (21) 
C

>  <SeqNum>  (21) 
402

>  <Name>  (21) 
N-[5-(2-fluorophenyl)-1H-pyrrolo[2,3-b]pyridin-3-yl]-5-({[(3R,4R)-3-fluoropiperidin-4-yl]methyl}amino)pyrazolo[1,5-a]pyrimidine-3-carboxamide

>  <SystematicName>  (21) 
5-[[(3R,4R)-3-fluoranylpiperidin-4-yl]methylamino]-N-[5-(2-fluorophenyl)-1H-pyrrolo[2,3-b]pyridin-3-yl]pyrazolo[1,5-a]pyrimidine-3-carboxamide

>  <Synonyms>  (21) 


>  <Type>  (21) 
NON-POLYMER

>  <Formula>  (21) 
C26 H24 F2 N8 O

>  <ObservedFormula>  (21) 
C26 F2 N8 O

>  <MolecularWeight>  (21) 
502.519

>  <ModifiedDate>  (21) 
2013-05-10

>  <Parent>  (21) 


>  <OneLetterCode>  (21) 


>  <SubcomponentList>  (21) 


>  <AmbiguousFlag>  (21) 
N

>  <InsertionCode>  (21) 


>  <InstanceId>  (21) 
4K1B_1OC_A_402

>  <ChemCompId>  (21) 
1OC

>  <PdbId>  (21) 
4K1B

>  <ResidueNumber>  (21) 
402

>  <InChI>  (21) 
InChI=1S/C26H24F2N8O/c27-20-4-2-1-3-17(20)16-9-18-22(14-32-24(18)31-11-16)34-26(37)19-12-33-36-8-6-23(35-25(19)36)30-10-15-5-7-29-13-21(15)28/h1-4,6,8-9,11-12,14-15,21,29H,5,7,10,13H2,(H,30,35)(H,31,32)(H,34,37)/t15-,21+/m1/s1

>  <InChIKey>  (21) 
BEXSRDRFSVXXPU-VFNWGFHPSA-N

>  <SMILES>  (21) 
c1ccc(c(c1)c2cc3c(c[nH]c3nc2)NC(=O)c4cnn5c4nc(cc5)NC[C@H]6CCNC[C@@H]6F)F

>  <MissingHeavyAtoms>  (21) 
0

>  <Model>  (21) 
1

>  <AltIds>  (21) 


>  <pKI>  (21) 
11.52

>  <ChemblID>  (21) 
-

>  <standardized_canonical_smiles>  (21) 
O=C(Nc1c[nH]c2ncc(-c3ccccc3F)cc12)c1cnn2ccc(NC[C@H]3CCNC[C@@H]3F)nc12

$$$$
3BGP_VX1_A_314
     RDKit          3D

 23 26  0  0  0  0  0  0  0  0999 V2000
   20.1800   30.8870   -1.0710 N   0  0  0  0  0  0  0  0  0  0  0  0
   20.7840   31.5580   -0.0210 C   0  0  0  0  0  0  0  0  0  0  0  0
   20.9980   30.9140    1.1410 N   0  0  0  0  0  0  0  0  0  0  0  0
   21.5830   31.5320    2.1850 C   0  0  0  0  0  0  0  0  0  0  0  0
   21.9800   32.8730    2.0710 C   0  0  0  0  0  0  0  0  0  0  0  0
   21.7410   33.5360    0.8290 C   0  0  0  0  0  0  0  0  0  0  0  0
   21.1440   32.8410   -0.1750 N   0  0  0  0  0  0  0  0  0  0  0  0
   22.1290   34.9740    0.6120 C   0  0  0  0  0  0  0  0  0  0  0  0
   22.3240   35.8590    1.7310 C   0  0  0  0  0  0  0  0  0  0  0  0
   22.6790   37.1840    1.5580 C   0  0  0  0  0  0  0  0  0  0  0  0
   22.8630   37.7150    0.2330 C   0  0  0  0  0  0  0  0  0  0  0  0
   23.1850   38.8750   -0.2820 N   0  0  0  0  0  0  0  0  0  0  0  0
   23.2210   38.8600   -1.4880 O   0  0  0  0  0  0  0  0  0  0  0  0
   22.9240   37.6680   -2.0420 C   0  0  0  0  0  0  0  0  0  0  0  0
   22.8980   37.3920   -3.5140 C   0  0  0  0  0  0  0  0  0  0  0  0
   22.6760   36.0790   -4.0550 C   0  0  0  0  0  0  0  0  0  0  0  0
   22.6630   35.8870   -5.4520 C   0  0  0  0  0  0  0  0  0  0  0  0
   22.8700   36.9850   -6.3200 C   0  0  0  0  0  0  0  0  0  0  0  0
   22.8530   36.7450   -8.0380 Cl  0  0  0  0  0  0  0  0  0  0  0  0
   23.0880   38.2740   -5.7990 C   0  0  0  0  0  0  0  0  0  0  0  0
   23.1040   38.4840   -4.4140 C   0  0  0  0  0  0  0  0  0  0  0  0
   22.6630   36.8070   -0.9450 C   0  0  0  0  0  0  0  0  0  0  0  0
   22.2970   35.4470   -0.7110 C   0  0  0  0  0  0  0  0  0  0  0  0
  2  1  1  0
  3  2  2  0
  7  2  1  0
  4  3  1  0
  5  4  2  0
  6  5  1  0
  7  6  2  0
  8  6  1  0
  9  8  1  0
 23  8  2  0
 10  9  2  0
 11 10  1  0
 12 11  2  0
 22 11  1  0
 13 12  1  0
 14 13  1  0
 15 14  1  0
 22 14  2  0
 16 15  2  0
 21 15  1  0
 17 16  1  0
 18 17  2  0
 19 18  1  0
 20 18  1  0
 21 20  2  0
 23 22  1  0
A    1
N1
A    2
C2
A    3
N3
A    4
C4
A    5
C5
A    6
C6
A    7
N7
A    8
C8
A    9
C9
A   10
C10
A   11
C11
A   12
N12
A   13
O13
A   14
C14
A   15
C15
A   16
C16
A   17
C17
A   18
C18
A   19
CL19
A   20
C20
A   21
C21
A   22
C22
A   23
C23
M  END
>  <Id>  (22) 
3BGP_VX1_A_314

>  <ChainId>  (22) 
A

>  <AsymId>  (22) 
B

>  <SeqNum>  (22) 
314

>  <Name>  (22) 
4-[3-(4-chlorophenyl)-2,1-benzisoxazol-5-yl]pyrimidin-2-amine

>  <SystematicName>  (22) 
4-[3-(4-chlorophenyl)-2,1-benzoxazol-5-yl]pyrimidin-2-amine

>  <Synonyms>  (22) 


>  <Type>  (22) 
NON-POLYMER

>  <Formula>  (22) 
C17 H11 Cl N4 O

>  <ObservedFormula>  (22) 
C17 Cl N4 O

>  <MolecularWeight>  (22) 
322.748

>  <ModifiedDate>  (22) 
2011-06-04

>  <Parent>  (22) 


>  <OneLetterCode>  (22) 


>  <SubcomponentList>  (22) 


>  <AmbiguousFlag>  (22) 
N

>  <InsertionCode>  (22) 


>  <InstanceId>  (22) 
3BGP_VX1_A_314

>  <ChemCompId>  (22) 
VX1

>  <PdbId>  (22) 
3BGP

>  <ResidueNumber>  (22) 
314

>  <InChI>  (22) 
InChI=1S/C17H11ClN4O/c18-12-4-1-10(2-5-12)16-13-9-11(3-6-15(13)22-23-16)14-7-8-20-17(19)21-14/h1-9H,(H2,19,20,21)

>  <InChIKey>  (22) 
AQVFETGXIRKVAQ-UHFFFAOYSA-N

>  <SMILES>  (22) 
c1cc(ccc1c2c3cc(ccc3no2)c4ccnc(n4)N)Cl

>  <MissingHeavyAtoms>  (22) 
0

>  <Model>  (22) 
1

>  <AltIds>  (22) 


>  <pKI>  (22) 
7.04

>  <ChemblID>  (22) 
-

>  <standardized_canonical_smiles>  (22) 
Nc1nccc(-c2ccc3noc(-c4ccc(Cl)cc4)c3c2)n1

$$$$
