1K1L_FD3_A_999
     RDKit          3D

 33 36  0  0  0  0  0  0  0  0999 V2000
   -3.2450    5.7480   20.2080 C   0  0  0  0  0  0  0  0  0  0  0  0
   -3.8130    7.0280   20.1030 C   0  0  0  0  0  0  0  0  0  0  0  0
   -1.8960    5.5640   19.8250 C   0  0  0  0  0  0  0  0  0  0  0  0
   -1.1280    6.6450   19.3710 C   0  0  0  0  0  0  0  0  0  0  0  0
   -1.7070    7.9240   19.2760 C   0  0  0  0  0  0  0  0  0  0  0  0
   -3.0560    8.1170   19.6400 C   0  0  0  0  0  0  0  0  0  0  0  0
   -3.6940    9.4740   19.5440 C   0  0  0  0  0  0  0  0  0  0  0  0
   -2.9810   10.4910   19.1390 N   0  0  0  0  0  0  0  0  0  0  0  0
   -4.9560    9.6140   19.8860 N   0  0  0  0  0  0  0  0  0  0  0  0
   -4.0900    4.5600   20.7130 C   0  0  0  0  0  0  0  0  0  0  0  0
   -4.0520    4.3820   22.2420 C   0  0  0  0  0  0  0  0  0  0  0  0
   -2.7330    4.7590   22.8850 C   0  0  0  0  0  0  0  0  0  0  0  0
   -2.7060    5.8960   23.3530 O   0  0  0  0  0  0  0  0  0  0  0  0
   -1.6530    3.9220   22.9120 N   0  0  0  0  0  0  0  0  0  0  0  0
   -1.5950    2.7340   22.0300 C   0  0  0  0  0  0  0  0  0  0  0  0
   -1.1190    1.5670   22.9310 C   0  0  0  0  0  0  0  0  0  0  0  0
    0.1300    3.3040   24.3760 C   0  0  0  0  0  0  0  0  0  0  0  0
   -0.3720    4.4270   23.4370 C   0  0  0  0  0  0  0  0  0  0  0  0
   -0.0250    1.9370   23.8060 N   0  0  0  0  0  0  0  0  0  0  0  0
   -5.1560    5.1010   22.8930 N   0  0  0  0  0  0  0  0  0  0  0  0
   -6.0160    4.3560   24.1820 S   0  0  0  0  0  0  0  0  0  0  0  0
   -7.0700    5.2380   24.6080 O   0  0  0  0  0  0  0  0  0  0  0  0
   -6.2660    2.9880   23.8750 O   0  0  0  0  0  0  0  0  0  0  0  0
   -4.7590    4.4100   25.3600 C   0  0  0  0  0  0  0  0  0  0  0  0
   -4.4710    5.6480   25.9580 C   0  0  0  0  0  0  0  0  0  0  0  0
   -3.4430    5.7550   26.9290 C   0  0  0  0  0  0  0  0  0  0  0  0
   -3.0190    3.3300   26.6770 C   0  0  0  0  0  0  0  0  0  0  0  0
   -2.7100    4.5860   27.2970 C   0  0  0  0  0  0  0  0  0  0  0  0
   -4.0540    3.2590   25.7070 C   0  0  0  0  0  0  0  0  0  0  0  0
   -1.6680    4.6280   28.2750 C   0  0  0  0  0  0  0  0  0  0  0  0
   -0.9450    3.4410   28.6250 C   0  0  0  0  0  0  0  0  0  0  0  0
   -1.2660    2.2110   28.0000 C   0  0  0  0  0  0  0  0  0  0  0  0
   -2.2910    2.1500   27.0330 C   0  0  0  0  0  0  0  0  0  0  0  0
  2  1  2  0
  3  1  1  0
 10  1  1  0
  6  2  1  0
  4  3  2  0
  5  4  1  0
  6  5  2  0
  7  6  1  0
  8  7  1  0
  9  7  2  0
 11 10  1  0
 12 11  1  0
 20 11  1  0
 13 12  2  0
 14 12  1  0
 15 14  1  0
 18 14  1  0
 16 15  1  0
 19 16  1  0
 18 17  1  0
 19 17  1  0
 21 20  1  0
 22 21  2  0
 23 21  2  0
 24 21  1  0
 25 24  2  0
 29 24  1  0
 26 25  1  0
 28 26  2  0
 28 27  1  0
 29 27  2  0
 33 27  1  0
 30 28  1  0
 31 30  2  0
 32 31  1  0
 33 32  2  0
A    1
C65
A    2
C66
A    3
C64
A    4
C63
A    5
C62
A    6
C61
A    7
C25
A    8
N43
A    9
N54
A   10
C34
A   11
C31
A   12
C35
A   13
O36
A   14
N81
A   15
C71
A   16
C72
A   17
C74
A   18
C75
A   19
N40
A   20
N29
A   21
S12
A   22
O32
A   23
O33
A   24
C2
A   25
C3
A   26
C4
A   27
C9
A   28
C10
A   29
C1
A   30
C5
A   31
C6
A   32
C7
A   33
C8
M  END
>  <Id>  (1) 
1K1L_FD3_A_999

>  <ChainId>  (1) 
A

>  <AsymId>  (1) 
D

>  <SeqNum>  (1) 
999

>  <Name>  (1) 
N-ALPHA-(2-NAPHTHYLSULFONYL)-3-AMIDINO-L-PHENYLALANINE PIPERAZIDE

>  <SystematicName>  (1) 
3-[(2S)-2-(naphthalen-2-ylsulfonylamino)-3-oxo-3-piperazin-1-yl-propyl]benzenecarboximidamide

>  <Synonyms>  (1) 


>  <Type>  (1) 
NON-POLYMER

>  <Formula>  (1) 
C24 H27 N5 O3 S

>  <ObservedFormula>  (1) 
C24 S N5 O3

>  <MolecularWeight>  (1) 
465.568

>  <ModifiedDate>  (1) 
2011-06-04

>  <Parent>  (1) 


>  <OneLetterCode>  (1) 


>  <SubcomponentList>  (1) 


>  <AmbiguousFlag>  (1) 
N

>  <InsertionCode>  (1) 


>  <InstanceId>  (1) 
1K1L_FD3_A_999

>  <ChemCompId>  (1) 
FD3

>  <PdbId>  (1) 
1K1L

>  <ResidueNumber>  (1) 
999

>  <InChI>  (1) 
InChI=1S/C24H27N5O3S/c25-23(26)20-7-3-4-17(14-20)15-22(24(30)29-12-10-27-11-13-29)28-33(31,32)21-9-8-18-5-1-2-6-19(18)16-21/h1-9,14,16,22,27-28H,10-13,15H2,(H3,25,26)/t22-/m0/s1

>  <InChIKey>  (1) 
ZVDMTWWOKZXJOE-QFIPXVFZSA-N

>  <SMILES>  (1) 
[H]/N=C(/c1cccc(c1)C[C@@H](C(=O)N2CCNCC2)NS(=O)(=O)c3ccc4ccccc4c3)\N

>  <MissingHeavyAtoms>  (1) 
0

>  <Model>  (1) 
1

>  <AltIds>  (1) 


>  <pKI>  (1) 
6.66

>  <ChemblID>  (1) 
CHEMBL319868

>  <standardized_canonical_smiles>  (1) 
N=C(N)c1cccc(CC(NS(=O)(=O)c2ccc3ccccc3c2)C(=O)N2CCNCC2)c1

$$$$
1K1J_FD2_A_999
     RDKit          3D

 37 40  0  0  0  0  0  0  0  0999 V2000
   -3.0350    5.6090   20.2470 C   0  0  0  0  0  0  0  0  0  0  0  0
   -3.6800    6.8610   20.1780 C   0  0  0  0  0  0  0  0  0  0  0  0
   -1.6740    5.5160   19.8930 C   0  0  0  0  0  0  0  0  0  0  0  0
   -0.9650    6.6510   19.4760 C   0  0  0  0  0  0  0  0  0  0  0  0
   -1.6110    7.8990   19.4040 C   0  0  0  0  0  0  0  0  0  0  0  0
   -2.9750    8.0140   19.7580 C   0  0  0  0  0  0  0  0  0  0  0  0
   -3.6690    9.3600   19.6700 C   0  0  0  0  0  0  0  0  0  0  0  0
   -2.9760   10.4020   19.2870 N   0  0  0  0  0  0  0  0  0  0  0  0
   -4.9510    9.4660   19.9690 N   0  0  0  0  0  0  0  0  0  0  0  0
   -3.8050    4.3610   20.7070 C   0  0  0  0  0  0  0  0  0  0  0  0
   -3.7930    4.1530   22.2540 C   0  0  0  0  0  0  0  0  0  0  0  0
   -2.4690    4.5140   22.9040 C   0  0  0  0  0  0  0  0  0  0  0  0
   -2.4170    5.6590   23.3450 O   0  0  0  0  0  0  0  0  0  0  0  0
   -1.4140    3.6780   23.0210 N   0  0  0  0  0  0  0  0  0  0  0  0
   -1.5090    2.3460   22.4450 C   0  0  0  0  0  0  0  0  0  0  0  0
   -1.0240    1.3160   23.4920 C   0  0  0  0  0  0  0  0  0  0  0  0
    0.3360    3.1580   24.6370 C   0  0  0  0  0  0  0  0  0  0  0  0
   -0.1640    4.1730   23.5710 C   0  0  0  0  0  0  0  0  0  0  0  0
    0.3750    1.7080   24.0550 C   0  0  0  0  0  0  0  0  0  0  0  0
    0.7960    0.8060   25.0540 C   0  0  0  0  0  0  0  0  0  0  0  0
    0.1850   -0.1870   25.4370 O   0  0  0  0  0  0  0  0  0  0  0  0
    1.9990    1.1680   25.5360 O   0  0  0  0  0  0  0  0  0  0  0  0
    2.1760    0.9340   26.9510 C   0  0  0  0  0  0  0  0  0  0  0  0
   -4.8630    4.9280   22.8860 N   0  0  0  0  0  0  0  0  0  0  0  0
   -5.7780    4.2560   24.1930 S   0  0  0  0  0  0  0  0  0  0  0  0
   -6.7940    5.2050   24.5670 O   0  0  0  0  0  0  0  0  0  0  0  0
   -6.1130    2.9050   23.9020 O   0  0  0  0  0  0  0  0  0  0  0  0
   -4.5700    4.2890   25.4220 C   0  0  0  0  0  0  0  0  0  0  0  0
   -4.2840    5.5260   26.0170 C   0  0  0  0  0  0  0  0  0  0  0  0
   -3.3060    5.6250   27.0190 C   0  0  0  0  0  0  0  0  0  0  0  0
   -2.8900    3.2070   26.8370 C   0  0  0  0  0  0  0  0  0  0  0  0
   -2.6000    4.4590   27.4390 C   0  0  0  0  0  0  0  0  0  0  0  0
   -3.8950    3.1320   25.8170 C   0  0  0  0  0  0  0  0  0  0  0  0
   -1.6050    4.5230   28.4600 C   0  0  0  0  0  0  0  0  0  0  0  0
   -0.9040    3.3530   28.8800 C   0  0  0  0  0  0  0  0  0  0  0  0
   -1.2080    2.1070   28.2660 C   0  0  0  0  0  0  0  0  0  0  0  0
   -2.1910    2.0370   27.2620 C   0  0  0  0  0  0  0  0  0  0  0  0
  2  1  2  0
  3  1  1  0
 10  1  1  0
  6  2  1  0
  4  3  2  0
  5  4  1  0
  6  5  2  0
  7  6  1  0
  8  7  1  0
  9  7  2  0
 11 10  1  0
 12 11  1  0
 24 11  1  0
 13 12  2  0
 14 12  1  0
 15 14  1  0
 18 14  1  0
 16 15  1  0
 19 16  1  0
 18 17  1  0
 19 17  1  0
 20 19  1  0
 21 20  2  0
 22 20  1  0
 23 22  1  0
 25 24  1  0
 26 25  2  0
 27 25  2  0
 28 25  1  0
 29 28  2  0
 33 28  1  0
 30 29  1  0
 32 30  2  0
 32 31  1  0
 33 31  2  0
 37 31  1  0
 34 32  1  0
 35 34  2  0
 36 35  1  0
 37 36  2  0
A    1
C65
A    2
C66
A    3
C64
A    4
C63
A    5
C62
A    6
C61
A    7
C25
A    8
N43
A    9
N54
A   10
C34
A   11
C31
A   12
C35
A   13
O36
A   14
N81
A   15
C71
A   16
C72
A   17
C74
A   18
C75
A   19
C40
A   20
C48
A   21
O49
A   22
O55
A   23
C99
A   24
N29
A   25
S12
A   26
O32
A   27
O33
A   28
C2
A   29
C3
A   30
C4
A   31
C9
A   32
C10
A   33
C1
A   34
C5
A   35
C6
A   36
C7
A   37
C8
M  END
>  <Id>  (2) 
1K1J_FD2_A_999

>  <ChainId>  (2) 
A

>  <AsymId>  (2) 
D

>  <SeqNum>  (2) 
999

>  <Name>  (2) 
N-ALPHA-(2-NAPHTHYLSULFONYL)-N(3-AMIDINO-L-PHENYLALANINYL)ISOPIPECOLINIC ACID METHYL ESTER

>  <SystematicName>  (2) 
methyl 1-[(2S)-3-(3-carbamimidoylphenyl)-2-(naphthalen-2-ylsulfonylamino)propanoyl]piperidine-4-carboxylate

>  <Synonyms>  (2) 


>  <Type>  (2) 
NON-POLYMER

>  <Formula>  (2) 
C27 H30 N4 O5 S

>  <ObservedFormula>  (2) 
C27 S N4 O5

>  <MolecularWeight>  (2) 
522.616

>  <ModifiedDate>  (2) 
2011-06-04

>  <Parent>  (2) 


>  <OneLetterCode>  (2) 


>  <SubcomponentList>  (2) 


>  <AmbiguousFlag>  (2) 
N

>  <InsertionCode>  (2) 


>  <InstanceId>  (2) 
1K1J_FD2_A_999

>  <ChemCompId>  (2) 
FD2

>  <PdbId>  (2) 
1K1J

>  <ResidueNumber>  (2) 
999

>  <InChI>  (2) 
InChI=1S/C27H30N4O5S/c1-36-27(33)20-11-13-31(14-12-20)26(32)24(16-18-5-4-8-22(15-18)25(28)29)30-37(34,35)23-10-9-19-6-2-3-7-21(19)17-23/h2-10,15,17,20,24,30H,11-14,16H2,1H3,(H3,28,29)/t24-/m0/s1

>  <InChIKey>  (2) 
JJLGQWCKMHPBEB-DEOSSOPVSA-N

>  <SMILES>  (2) 
[H]/N=C(/c1cccc(c1)C[C@@H](C(=O)N2CCC(CC2)C(=O)OC)NS(=O)(=O)c3ccc4ccccc4c3)\N

>  <MissingHeavyAtoms>  (2) 
0

>  <Model>  (2) 
1

>  <AltIds>  (2) 


>  <pKI>  (2) 
7.44

>  <ChemblID>  (2) 
CHEMBL347493

>  <standardized_canonical_smiles>  (2) 
COC(=O)C1CCN(C(=O)C(Cc2cccc(C(=N)N)c2)NS(=O)(=O)c2ccc3ccccc3c2)CC1

$$$$
1PPH_0ZG_E_1
     RDKit          3D

 30 32  0  0  0  0  0  0  0  0999 V2000
   -5.9300    4.1070   23.9760 S   0  0  0  0  0  0  0  0  0  0  0  0
   -7.0380    5.0670   24.3810 O   0  0  0  0  0  0  0  0  0  0  0  0
   -6.4450    2.7280   23.5830 O   0  0  0  0  0  0  0  0  0  0  0  0
   -4.8070    4.0070   25.3830 C   0  0  0  0  0  0  0  0  0  0  0  0
   -4.4930    5.2050   26.0050 C   0  0  0  0  0  0  0  0  0  0  0  0
   -3.5280    5.2410   26.9810 C   0  0  0  0  0  0  0  0  0  0  0  0
   -2.8870    4.0670   27.3290 C   0  0  0  0  0  0  0  0  0  0  0  0
   -3.2240    2.8500   26.7350 C   0  0  0  0  0  0  0  0  0  0  0  0
   -4.2000    2.8170   25.7530 C   0  0  0  0  0  0  0  0  0  0  0  0
   -1.7820    4.1410   28.3860 C   0  0  0  0  0  0  0  0  0  0  0  0
   -1.6380    3.6540   22.8470 N   0  0  0  0  0  0  0  0  0  0  0  0
   -1.6090    2.3590   22.1590 C   0  0  0  0  0  0  0  0  0  0  0  0
   -1.2340    1.3360   23.2080 C   0  0  0  0  0  0  0  0  0  0  0  0
    0.0540    1.7490   23.9040 C   0  0  0  0  0  0  0  0  0  0  0  0
   -0.0730    3.1140   24.5260 C   0  0  0  0  0  0  0  0  0  0  0  0
   -0.3530    4.0580   23.3900 C   0  0  0  0  0  0  0  0  0  0  0  0
   -5.1570    4.7810   22.6350 N   0  0  0  0  0  0  0  0  0  0  0  0
   -3.9800    4.1220   22.0690 C   0  0  0  0  0  0  0  0  0  0  0  0
   -2.6780    4.5080   22.8020 C   0  0  0  0  0  0  0  0  0  0  0  0
   -2.5950    5.6420   23.3040 O   0  0  0  0  0  0  0  0  0  0  0  0
   -3.8870    4.4550   20.5690 C   0  0  0  0  0  0  0  0  0  0  0  0
   -3.0970    5.7160   20.1980 C   0  0  0  0  0  0  0  0  0  0  0  0
   -3.7080    6.9530   20.1380 C   0  0  0  0  0  0  0  0  0  0  0  0
   -1.7560    5.6350   19.8730 C   0  0  0  0  0  0  0  0  0  0  0  0
   -3.0700    8.1220   19.7700 C   0  0  0  0  0  0  0  0  0  0  0  0
   -1.0870    6.7790   19.5080 C   0  0  0  0  0  0  0  0  0  0  0  0
   -1.7150    8.0070   19.4520 C   0  0  0  0  0  0  0  0  0  0  0  0
   -3.7400    9.3550   19.6970 C   0  0  0  0  0  0  0  0  0  0  0  0
   -3.0570   10.4510   19.3200 N   0  0  0  0  0  0  0  0  0  0  0  0
   -5.0450    9.4360   20.0230 N   0  0  0  0  0  0  0  0  0  0  0  0
  2  1  2  0
  3  1  2  0
  4  1  1  0
 17  1  1  0
  5  4  2  0
  9  4  1  0
  6  5  1  0
  7  6  2  0
  8  7  1  0
 10  7  1  0
  9  8  2  0
 12 11  1  0
 16 11  1  0
 19 11  1  0
 13 12  1  0
 14 13  1  0
 15 14  1  0
 16 15  1  0
 18 17  1  0
 19 18  1  0
 21 18  1  0
 20 19  2  0
 22 21  1  0
 23 22  2  0
 24 22  1  0
 25 23  1  0
 26 24  2  0
 27 25  2  0
 28 25  1  0
 27 26  1  0
 29 28  2  0
 30 28  1  0
A    1
S
A    2
O1S
A    3
O2S
A    4
C1
A    5
C2
A    6
C3
A    7
C4
A    8
C5
A    9
C6
A   10
C
A   11
N1
A   12
C21
A   13
C31
A   14
C41
A   15
C51
A   16
C61
A   17
N
A   18
CA
A   19
C7
A   20
O
A   21
CB
A   22
CG
A   23
CD1
A   24
CD2
A   25
CE1
A   26
CE2
A   27
CZ
A   28
CF
A   29
NG1
A   30
NG2
M  END
>  <Id>  (3) 
1PPH_0ZG_E_1

>  <ChainId>  (3) 
E

>  <AsymId>  (3) 
D

>  <SeqNum>  (3) 
1

>  <Name>  (3) 
3-[(2S)-2-{[(4-methylphenyl)sulfonyl]amino}-3-oxo-3-piperidin-1-ylpropyl]benzenecarboximidamide

>  <SystematicName>  (3) 
3-[(2S)-2-[(4-methylphenyl)sulfonylamino]-3-oxo-3-piperidin-1-yl-propyl]benzenecarboximidamide

>  <Synonyms>  (3) 
4-TAPAP

>  <Type>  (3) 
peptide-like

>  <Formula>  (3) 
C22 H28 N4 O3 S

>  <ObservedFormula>  (3) 
S C22 N4 O3

>  <MolecularWeight>  (3) 
428.548

>  <ModifiedDate>  (3) 
2011-07-13

>  <Parent>  (3) 


>  <OneLetterCode>  (3) 


>  <SubcomponentList>  (3) 
TSU PIP APM

>  <AmbiguousFlag>  (3) 
N

>  <InsertionCode>  (3) 


>  <InstanceId>  (3) 
1PPH_0ZG_E_1

>  <ChemCompId>  (3) 
0ZG

>  <PdbId>  (3) 
1PPH

>  <ResidueNumber>  (3) 
1

>  <InChI>  (3) 
InChI=1S/C22H28N4O3S/c1-16-8-10-19(11-9-16)30(28,29)25-20(22(27)26-12-3-2-4-13-26)15-17-6-5-7-18(14-17)21(23)24/h5-11,14,20,25H,2-4,12-13,15H2,1H3,(H3,23,24)/t20-/m0/s1

>  <InChIKey>  (3) 
RNNMXTSTLVYYQG-FQEVSTJZSA-N

>  <SMILES>  (3) 
[H]/N=C(/c1cccc(c1)C[C@@H](C(=O)N2CCCCC2)NS(=O)(=O)c3ccc(cc3)C)\N

>  <MissingHeavyAtoms>  (3) 
0

>  <Model>  (3) 
1

>  <AltIds>  (3) 


>  <pKI>  (3) 
5.92

>  <ChemblID>  (3) 
CHEMBL384295

>  <standardized_canonical_smiles>  (3) 
Cc1ccc(S(=O)(=O)NC(Cc2cccc(C(=N)N)c2)C(=O)N2CCCCC2)cc1

$$$$
1TNI_PBN_A_900
     RDKit          3D

 11 11  0  0  0  0  0  0  0  0999 V2000
   29.0920   15.5130   14.1370 C   0  0  0  0  0  0  0  0  0  0  0  0
   29.8140   15.8390   15.4380 C   0  0  0  0  0  0  0  0  0  0  0  0
   28.8910   15.4650   16.5610 C   0  0  0  0  0  0  0  0  0  0  0  0
   29.5580   14.6080   17.6300 C   0  0  0  0  0  0  0  0  0  0  0  0
   30.1700   13.2680   17.1930 C   0  0  0  0  0  0  0  0  0  0  0  0
   29.5220   12.4630   16.2720 C   0  0  0  0  0  0  0  0  0  0  0  0
   29.8790   11.1320   16.1840 C   0  0  0  0  0  0  0  0  0  0  0  0
   30.8630   10.5610   16.9830 C   0  0  0  0  0  0  0  0  0  0  0  0
   31.5100   11.3480   17.9030 C   0  0  0  0  0  0  0  0  0  0  0  0
   31.1550   12.6880   17.9960 C   0  0  0  0  0  0  0  0  0  0  0  0
   29.8680   14.9520   13.0270 N   0  0  0  0  0  0  0  0  0  0  0  0
  2  1  1  0
 11  1  1  0
  3  2  1  0
  4  3  1  0
  5  4  1  0
  6  5  2  0
 10  5  1  0
  7  6  1  0
  8  7  2  0
  9  8  1  0
 10  9  2  0
A    1
C1
A    2
C2
A    3
C3
A    4
C4
A    5
C1'
A    6
C2'
A    7
C3'
A    8
C4'
A    9
C5'
A   10
C6'
A   11
N
M  END
>  <Id>  (4) 
1TNI_PBN_A_900

>  <ChainId>  (4) 
A

>  <AsymId>  (4) 
C

>  <SeqNum>  (4) 
900

>  <Name>  (4) 
4-PHENYLBUTYLAMINE

>  <SystematicName>  (4) 
4-phenylbutan-1-amine

>  <Synonyms>  (4) 


>  <Type>  (4) 
NON-POLYMER

>  <Formula>  (4) 
C10 H15 N

>  <ObservedFormula>  (4) 
C10 N

>  <MolecularWeight>  (4) 
149.233

>  <ModifiedDate>  (4) 
2011-06-04

>  <Parent>  (4) 


>  <OneLetterCode>  (4) 


>  <SubcomponentList>  (4) 


>  <AmbiguousFlag>  (4) 
N

>  <InsertionCode>  (4) 


>  <InstanceId>  (4) 
1TNI_PBN_A_900

>  <ChemCompId>  (4) 
PBN

>  <PdbId>  (4) 
1TNI

>  <ResidueNumber>  (4) 
900

>  <InChI>  (4) 
InChI=1S/C10H15N/c11-9-5-4-8-10-6-2-1-3-7-10/h1-3,6-7H,4-5,8-9,11H2

>  <InChIKey>  (4) 
AGNFWIZBEATIAK-UHFFFAOYSA-N

>  <SMILES>  (4) 
c1ccc(cc1)CCCCN

>  <MissingHeavyAtoms>  (4) 
0

>  <Model>  (4) 
1

>  <AltIds>  (4) 


>  <pKI>  (4) 
4.7

>  <ChemblID>  (4) 
CHEMBL79512

>  <standardized_canonical_smiles>  (4) 
NCCCCc1ccccc1

$$$$
1UTP_PBN_A_1246
     RDKit          3D

 11 11  0  0  0  0  0  0  0  0999 V2000
   45.1120   18.4410   52.3110 C   0  0  0  0  0  0  0  0  0  0  0  0
   45.3410   18.6890   50.8450 C   0  0  0  0  0  0  0  0  0  0  0  0
   45.9470   20.0530   50.5420 C   0  0  0  0  0  0  0  0  0  0  0  0
   44.9500   20.8470   49.7010 C   0  0  0  0  0  0  0  0  0  0  0  0
   45.1900   22.1990   49.5100 C   0  0  0  0  0  0  0  0  0  0  0  0
   44.4270   22.9590   48.6320 C   0  0  0  0  0  0  0  0  0  0  0  0
   44.7030   24.2970   48.4720 C   0  0  0  0  0  0  0  0  0  0  0  0
   45.7240   24.9230   49.1610 C   0  0  0  0  0  0  0  0  0  0  0  0
   46.4970   24.1830   50.0360 C   0  0  0  0  0  0  0  0  0  0  0  0
   46.2170   22.8440   50.1990 C   0  0  0  0  0  0  0  0  0  0  0  0
   46.0630   17.4450   52.8970 N   0  0  0  0  0  0  0  0  0  0  0  0
  2  1  1  0
 11  1  1  0
  3  2  1  0
  4  3  1  0
  5  4  1  0
  6  5  2  0
 10  5  1  0
  7  6  1  0
  8  7  2  0
  9  8  1  0
 10  9  2  0
A    1
C1
A    2
C2
A    3
C3
A    4
C4
A    5
C1'
A    6
C2'
A    7
C3'
A    8
C4'
A    9
C5'
A   10
C6'
A   11
N
M  END
>  <Id>  (5) 
1UTP_PBN_A_1246

>  <ChainId>  (5) 
A

>  <AsymId>  (5) 
B

>  <SeqNum>  (5) 
1246

>  <Name>  (5) 
4-PHENYLBUTYLAMINE

>  <SystematicName>  (5) 
4-phenylbutan-1-amine

>  <Synonyms>  (5) 


>  <Type>  (5) 
NON-POLYMER

>  <Formula>  (5) 
C10 H15 N

>  <ObservedFormula>  (5) 
C10 N

>  <MolecularWeight>  (5) 
149.233

>  <ModifiedDate>  (5) 
2011-06-04

>  <Parent>  (5) 


>  <OneLetterCode>  (5) 


>  <SubcomponentList>  (5) 


>  <AmbiguousFlag>  (5) 
N

>  <InsertionCode>  (5) 


>  <InstanceId>  (5) 
1UTP_PBN_A_1246

>  <ChemCompId>  (5) 
PBN

>  <PdbId>  (5) 
1UTP

>  <ResidueNumber>  (5) 
1246

>  <InChI>  (5) 
InChI=1S/C10H15N/c11-9-5-4-8-10-6-2-1-3-7-10/h1-3,6-7H,4-5,8-9,11H2

>  <InChIKey>  (5) 
AGNFWIZBEATIAK-UHFFFAOYSA-N

>  <SMILES>  (5) 
c1ccc(cc1)CCCCN

>  <MissingHeavyAtoms>  (5) 
0

>  <Model>  (5) 
1

>  <AltIds>  (5) 


>  <pKI>  (5) 
4.7

>  <ChemblID>  (5) 
CHEMBL79512

>  <standardized_canonical_smiles>  (5) 
NCCCCc1ccccc1

$$$$
1PPC_MID_E_5
     RDKit          3D

 37 40  0  0  0  0  0  0  0  0999 V2000
   -5.8270    4.7820   25.9170 S   0  0  0  0  0  0  0  0  0  0  0  0
   -6.8830    5.7670   26.4350 O   0  0  0  0  0  0  0  0  0  0  0  0
   -6.3850    3.3620   25.9520 O   0  0  0  0  0  0  0  0  0  0  0  0
   -3.7610    3.9040   27.5800 C   0  0  0  0  0  0  0  0  0  0  0  0
   -4.3660    4.9560   26.9430 C   0  0  0  0  0  0  0  0  0  0  0  0
   -3.8740    6.2180   27.1290 C   0  0  0  0  0  0  0  0  0  0  0  0
   -2.8230    6.4310   27.9910 C   0  0  0  0  0  0  0  0  0  0  0  0
   -1.1660    5.6080   29.4710 C   0  0  0  0  0  0  0  0  0  0  0  0
   -0.5380    4.5410   30.0870 C   0  0  0  0  0  0  0  0  0  0  0  0
   -1.0030    3.2540   29.8900 C   0  0  0  0  0  0  0  0  0  0  0  0
   -2.0960    3.0180   29.0710 C   0  0  0  0  0  0  0  0  0  0  0  0
   -2.6860    4.0860   28.4240 C   0  0  0  0  0  0  0  0  0  0  0  0
   -2.2320    5.3650   28.6300 C   0  0  0  0  0  0  0  0  0  0  0  0
   -5.5520    5.0200   24.2980 N   0  0  0  0  0  0  0  0  0  0  0  0
   -4.6090    4.0870   23.7300 C   0  0  0  0  0  0  0  0  0  0  0  0
   -3.2810    4.7140   23.3230 C   0  0  0  0  0  0  0  0  0  0  0  0
   -2.9600    5.8630   23.6500 O   0  0  0  0  0  0  0  0  0  0  0  0
   -2.5950    3.9030   22.4990 N   0  0  0  0  0  0  0  0  0  0  0  0
   -1.2700    4.1600   21.9520 C   0  0  0  0  0  0  0  0  0  0  0  0
   -0.4280    2.9070   22.1940 C   0  0  0  0  0  0  0  0  0  0  0  0
   -0.2020    2.1160   21.2720 O   0  0  0  0  0  0  0  0  0  0  0  0
   -1.3330    4.4800   20.4500 C   0  0  0  0  0  0  0  0  0  0  0  0
   -2.0020    5.8060   20.1500 C   0  0  0  0  0  0  0  0  0  0  0  0
   -3.3810    5.9010   20.0920 C   0  0  0  0  0  0  0  0  0  0  0  0
   -1.2360    6.9410   20.0230 C   0  0  0  0  0  0  0  0  0  0  0  0
   -3.9930    7.1200   19.8710 C   0  0  0  0  0  0  0  0  0  0  0  0
   -1.8530    8.1550   19.7970 C   0  0  0  0  0  0  0  0  0  0  0  0
   -3.2370    8.2680   19.7390 C   0  0  0  0  0  0  0  0  0  0  0  0
   -3.8330    9.5270   19.5790 C   0  0  0  0  0  0  0  0  0  0  0  0
   -5.1270    9.7230   19.8940 N   0  0  0  0  0  0  0  0  0  0  0  0
   -3.0670   10.5440   19.1670 N   0  0  0  0  0  0  0  0  0  0  0  0
    0.0740    2.6870   23.4200 N   0  0  0  0  0  0  0  0  0  0  0  0
    0.0190    3.6720   24.4880 C   0  0  0  0  0  0  0  0  0  0  0  0
   -0.7040    3.0330   25.6500 C   0  0  0  0  0  0  0  0  0  0  0  0
    0.1550    1.8800   26.1460 C   0  0  0  0  0  0  0  0  0  0  0  0
    0.3010    0.9040   24.9820 C   0  0  0  0  0  0  0  0  0  0  0  0
    0.9050    1.5360   23.7450 C   0  0  0  0  0  0  0  0  0  0  0  0
  2  1  2  0
  3  1  2  0
  5  1  1  0
 14  1  1  0
  5  4  2  0
 12  4  1  0
  6  5  1  0
  7  6  2  0
 13  7  1  0
  9  8  1  0
 13  8  2  0
 10  9  2  0
 11 10  1  0
 12 11  2  0
 13 12  1  0
 15 14  1  0
 16 15  1  0
 17 16  2  0
 18 16  1  0
 19 18  1  0
 20 19  1  0
 22 19  1  0
 21 20  2  0
 32 20  1  0
 23 22  1  0
 24 23  2  0
 25 23  1  0
 26 24  1  0
 27 25  2  0
 28 26  2  0
 28 27  1  0
 29 28  1  0
 30 29  2  0
 31 29  1  0
 33 32  1  0
 37 32  1  0
 34 33  1  0
 35 34  1  0
 36 35  1  0
 37 36  1  0
A    1
S
A    2
O1S
A    3
O2S
A    4
C1
A    5
C2
A    6
C3
A    7
C4
A    8
C5
A    9
C6
A   10
C7
A   11
C8
A   12
C9
A   13
C10
A   14
N
A   15
CA
A   16
C
A   17
O
A   18
N1
A   19
CA1
A   20
CB
A   21
O1
A   22
CB1
A   23
CG
A   24
CD1
A   25
CD2
A   26
CE1
A   27
CE2
A   28
CZ
A   29
CF
A   30
NG1
A   31
NG2
A   32
N11
A   33
C21
A   34
C31
A   35
C41
A   36
C51
A   37
C61
M  END
>  <Id>  (6) 
1PPC_MID_E_5

>  <ChainId>  (6) 
E

>  <AsymId>  (6) 
B

>  <SeqNum>  (6) 
5

>  <Name>  (6) 
1-[N-(naphthalen-2-ylsulfonyl)glycyl-4-carbamimidoyl-D-phenylalanyl]piperidine

>  <SystematicName>  (6) 
N-[(2R)-3-(4-carbamimidoylphenyl)-1-oxo-1-piperidin-1-yl-propan-2-yl]-2-(naphthalen-2-ylsulfonylamino)ethanamide

>  <Synonyms>  (6) 
NAPAP

>  <Type>  (6) 
peptide-like

>  <Formula>  (6) 
C27 H31 N5 O4 S

>  <ObservedFormula>  (6) 
S C27 N5 O4

>  <MolecularWeight>  (6) 
521.631

>  <ModifiedDate>  (6) 
2011-06-04

>  <Parent>  (6) 


>  <OneLetterCode>  (6) 


>  <SubcomponentList>  (6) 
NAS GLY APH PIP

>  <AmbiguousFlag>  (6) 
N

>  <InsertionCode>  (6) 


>  <InstanceId>  (6) 
1PPC_MID_E_5

>  <ChemCompId>  (6) 
MID

>  <PdbId>  (6) 
1PPC

>  <ResidueNumber>  (6) 
5

>  <InChI>  (6) 
InChI=1S/C27H31N5O4S/c28-26(29)21-10-8-19(9-11-21)16-24(27(34)32-14-4-1-5-15-32)31-25(33)18-30-37(35,36)23-13-12-20-6-2-3-7-22(20)17-23/h2-3,6-13,17,24,30H,1,4-5,14-16,18H2,(H3,28,29)(H,31,33)/t24-/m1/s1

>  <InChIKey>  (6) 
XXTWZTPVNIYSJZ-XMMPIXPASA-N

>  <SMILES>  (6) 
[H]/N=C(/c1ccc(cc1)C[C@H](C(=O)N2CCCCC2)NC(=O)CNS(=O)(=O)c3ccc4ccccc4c3)\N

>  <MissingHeavyAtoms>  (6) 
0

>  <Model>  (6) 
1

>  <AltIds>  (6) 


>  <pKI>  (6) 
6.32

>  <ChemblID>  (6) 
CHEMBL51173

>  <standardized_canonical_smiles>  (6) 
N=C(N)c1ccc(C[C@@H](NC(=O)CNS(=O)(=O)c2ccc3ccccc3c2)C(=O)N2CCCCC2)cc1

$$$$
1F0U_RPR_A_501
     RDKit          3D

 34 36  0  0  0  0  0  0  0  0999 V2000
   12.5050  -14.8710   23.4830 C   0  0  0  0  0  0  0  0  0  0  0  0
   12.9090  -13.6110   23.8810 C   0  0  0  0  0  0  0  0  0  0  0  0
   14.0530  -13.5150   24.6540 C   0  0  0  0  0  0  0  0  0  0  0  0
   14.7690  -14.6360   25.0460 C   0  0  0  0  0  0  0  0  0  0  0  0
   14.3500  -15.8940   24.6550 C   0  0  0  0  0  0  0  0  0  0  0  0
   13.2170  -16.0130   23.8570 C   0  0  0  0  0  0  0  0  0  0  0  0
   10.0850  -11.2180   22.9830 C   0  0  0  0  0  0  0  0  0  0  0  0
   10.7820  -10.0770   22.5860 C   0  0  0  0  0  0  0  0  0  0  0  0
   12.1730  -10.1120   22.6430 C   0  0  0  0  0  0  0  0  0  0  0  0
   12.8400  -11.2490   23.0750 C   0  0  0  0  0  0  0  0  0  0  0  0
   12.1550  -12.3870   23.4590 C   0  0  0  0  0  0  0  0  0  0  0  0
   10.7710  -12.3550   23.4140 C   0  0  0  0  0  0  0  0  0  0  0  0
   10.0600   -8.8680   22.1450 C   0  0  0  0  0  0  0  0  0  0  0  0
   10.7800   -8.0000   21.3880 N   0  0  0  0  0  0  0  0  0  0  0  0
   10.2840   -6.6780   21.0060 C   0  0  0  0  0  0  0  0  0  0  0  0
   10.7870   -6.3510   19.5940 C   0  0  0  0  0  0  0  0  0  0  0  0
   10.7310   -5.6350   22.0590 C   0  0  0  0  0  0  0  0  0  0  0  0
   10.0810   -4.2890   21.6970 C   0  0  0  0  0  0  0  0  0  0  0  0
    8.6550   -4.3630   21.6680 O   0  0  0  0  0  0  0  0  0  0  0  0
   12.2730   -5.5160   22.1310 C   0  0  0  0  0  0  0  0  0  0  0  0
   12.7840  -17.3630   23.3610 C   0  0  0  0  0  0  0  0  0  0  0  0
   13.2850  -17.6150   22.0060 N   0  0  0  0  0  0  0  0  0  0  0  0
   12.2570   -4.5180   24.4810 C   0  0  0  0  0  0  0  0  0  0  0  0
   12.8600   -3.7520   25.4860 C   0  0  0  0  0  0  0  0  0  0  0  0
   14.0610   -3.0960   25.2170 C   0  0  0  0  0  0  0  0  0  0  0  0
   14.6290   -3.1830   23.9560 C   0  0  0  0  0  0  0  0  0  0  0  0
   14.0180   -3.9360   22.9640 C   0  0  0  0  0  0  0  0  0  0  0  0
   12.8390   -4.6300   23.2170 C   0  0  0  0  0  0  0  0  0  0  0  0
   12.2420   -3.6320   26.8170 C   0  0  0  0  0  0  0  0  0  0  0  0
   12.9490   -3.2590   27.8790 N   0  0  0  0  0  0  0  0  0  0  0  0
   10.9350   -3.9120   26.9630 N   0  0  0  0  0  0  0  0  0  0  0  0
   10.6790   -3.2860   21.4430 O   0  0  0  0  0  0  0  0  0  0  0  0
    8.8920   -8.6520   22.4350 O   0  0  0  0  0  0  0  0  0  0  0  0
    7.9040   -3.2530   21.1650 C   0  0  0  0  0  0  0  0  0  0  0  0
  2  1  2  0
  6  1  1  0
  3  2  1  0
 11  2  1  0
  4  3  2  0
  5  4  1  0
  6  5  2  0
 21  6  1  0
  8  7  2  0
 12  7  1  0
  9  8  1  0
 13  8  1  0
 10  9  2  0
 11 10  1  0
 12 11  2  0
 14 13  1  0
 33 13  2  0
 15 14  1  0
 16 15  1  0
 17 15  1  0
 18 17  1  0
 20 17  1  0
 19 18  1  0
 32 18  2  0
 34 19  1  0
 28 20  1  0
 22 21  1  0
 24 23  2  0
 28 23  1  0
 25 24  1  0
 29 24  1  0
 26 25  2  0
 27 26  1  0
 28 27  2  0
 30 29  1  0
 31 29  2  0
A    1
C1
A    2
C2
A    3
C3
A    4
C4
A    5
C5
A    6
C6
A    7
C7
A    8
C8
A    9
C9
A   10
C10
A   11
C11
A   12
C12
A   13
C13
A   14
N14
A   15
C15
A   16
C16
A   17
C17
A   18
C18
A   19
O19
A   20
C20
A   21
C21
A   22
N22
A   23
C23
A   24
C24
A   25
C25
A   26
C26
A   27
C27
A   28
C28
A   29
C29
A   30
N30
A   31
N31
A   32
O32
A   33
O33
A   34
C34
M  END
>  <Id>  (7) 
1F0U_RPR_A_501

>  <ChainId>  (7) 
A

>  <AsymId>  (7) 
D

>  <SeqNum>  (7) 
501

>  <Name>  (7) 
3-[(3'-AMINOMETHYL-BIPHENYL-4-CARBONYL)-AMINO]-2-(3-CARBAMIMIDOYL-BENZYL)-BUTYRIC ACID METHYL ESTER

>  <SystematicName>  (7) 
methyl (2R,3R)-3-[[4-[3-(aminomethyl)phenyl]phenyl]carbonylamino]-2-[(3-carbamimidoylphenyl)methyl]butanoate

>  <Synonyms>  (7) 
RPR128515

>  <Type>  (7) 
NON-POLYMER

>  <Formula>  (7) 
C27 H30 N4 O3

>  <ObservedFormula>  (7) 
C27 N4 O3

>  <MolecularWeight>  (7) 
458.552

>  <ModifiedDate>  (7) 
2011-06-04

>  <Parent>  (7) 


>  <OneLetterCode>  (7) 


>  <SubcomponentList>  (7) 


>  <AmbiguousFlag>  (7) 
N

>  <InsertionCode>  (7) 


>  <InstanceId>  (7) 
1F0U_RPR_A_501

>  <ChemCompId>  (7) 
RPR

>  <PdbId>  (7) 
1F0U

>  <ResidueNumber>  (7) 
501

>  <InChI>  (7) 
InChI=1S/C27H30N4O3/c1-17(24(27(33)34-2)15-18-5-3-8-23(13-18)25(29)30)31-26(32)21-11-9-20(10-12-21)22-7-4-6-19(14-22)16-28/h3-14,17,24H,15-16,28H2,1-2H3,(H3,29,30)(H,31,32)/t17-,24-/m1/s1

>  <InChIKey>  (7) 
XFKVLKLCLYJKNF-MZNJEOGPSA-N

>  <SMILES>  (7) 
C[C@H]([C@@H](Cc1cccc(c1)C(=N)N)C(=O)OC)NC(=O)c2ccc(cc2)c3cccc(c3)CN

>  <MissingHeavyAtoms>  (7) 
0

>  <Model>  (7) 
1

>  <AltIds>  (7) 


>  <pKI>  (7) 
7.16

>  <ChemblID>  (7) 
CHEMBL110419

>  <standardized_canonical_smiles>  (7) 
COC(=O)C(Cc1cccc(C(=N)N)c1)C(C)NC(=O)c1ccc(-c2cccc(CN)c2)cc1

$$$$
5MNO_MRZ_A_304
     RDKit          3D

  9  9  0  0  0  0  0  0  0  0999 V2000
   -1.6460  -13.5880  -14.6380 C   0  0  0  0  0  0  0  0  0  0  0  0
   -2.4590  -13.0450  -15.7860 C   0  0  0  0  0  0  0  0  0  0  0  0
   -1.7990  -13.3400  -17.1070 C   0  0  0  0  0  0  0  0  0  0  0  0
   -1.6190  -14.7890  -17.2510 N   0  0  0  0  0  0  0  0  0  0  0  0
   -0.7440  -15.2930  -16.1840 C   0  0  0  0  0  0  0  0  0  0  0  0
   -1.3560  -15.0510  -14.8390 C   0  0  0  0  0  0  0  0  0  0  0  0
   -2.0030  -15.5110  -18.3070 C   0  0  0  0  0  0  0  0  0  0  0  0
   -1.6490  -16.7710  -18.4400 N   0  0  0  0  0  0  0  0  0  0  0  0
   -2.7160  -14.9730  -19.2730 N   0  0  0  0  0  0  0  0  0  0  0  0
  2  1  1  0
  6  1  1  0
  3  2  1  0
  4  3  1  0
  5  4  1  0
  7  4  1  0
  6  5  1  0
  8  7  1  0
  9  7  2  0
A    1
C1
A    2
C6
A    3
C5
A    4
N4
A    5
C3
A    6
C2
A    7
C7
A    8
N8
A    9
N9
M  END
>  <Id>  (8) 
5MNO_MRZ_A_304

>  <ChainId>  (8) 
A

>  <AsymId>  (8) 
E

>  <SeqNum>  (8) 
304

>  <Name>  (8) 
piperidine-1-carboximidamide

>  <SystematicName>  (8) 
piperidine-1-carboximidamide

>  <Synonyms>  (8) 


>  <Type>  (8) 
NON-POLYMER

>  <Formula>  (8) 
C6 H13 N3

>  <ObservedFormula>  (8) 
C6 N3

>  <MolecularWeight>  (8) 
127.188

>  <ModifiedDate>  (8) 
2015-03-20

>  <Parent>  (8) 


>  <OneLetterCode>  (8) 


>  <SubcomponentList>  (8) 


>  <AmbiguousFlag>  (8) 
N

>  <InsertionCode>  (8) 


>  <InstanceId>  (8) 
5MNO_MRZ_A_304

>  <ChemCompId>  (8) 
MRZ

>  <PdbId>  (8) 
5MNO

>  <ResidueNumber>  (8) 
304

>  <InChI>  (8) 
InChI=1S/C6H13N3/c7-6(8)9-4-2-1-3-5-9/h1-5H2,(H3,7,8)

>  <InChIKey>  (8) 
QUUYRYYUKNNNNS-UHFFFAOYSA-N

>  <SMILES>  (8) 
[H]/N=C(\N)/N1CCCCC1

>  <MissingHeavyAtoms>  (8) 
0

>  <Model>  (8) 
1

>  <AltIds>  (8) 


>  <pKI>  (8) 
6.44

>  <ChemblID>  (8) 
CHEMBL103102

>  <standardized_canonical_smiles>  (8) 
N=C(N)N1CCCCC1

$$$$
5MNP_MRZ_A_305
     RDKit          3D

  9  9  0  0  0  0  0  0  0  0999 V2000
   -1.5870  -13.5090  -14.6410 C   0  0  0  0  0  0  0  0  0  0  0  0
   -2.4250  -12.9870  -15.7800 C   0  0  0  0  0  0  0  0  0  0  0  0
   -1.7920  -13.3010  -17.1020 C   0  0  0  0  0  0  0  0  0  0  0  0
   -1.6070  -14.7580  -17.2300 N   0  0  0  0  0  0  0  0  0  0  0  0
   -0.7310  -15.2790  -16.1670 C   0  0  0  0  0  0  0  0  0  0  0  0
   -1.3070  -14.9880  -14.8130 C   0  0  0  0  0  0  0  0  0  0  0  0
   -1.9950  -15.4700  -18.2920 C   0  0  0  0  0  0  0  0  0  0  0  0
   -1.6420  -16.7340  -18.4270 N   0  0  0  0  0  0  0  0  0  0  0  0
   -2.7190  -14.9300  -19.2520 N   0  0  0  0  0  0  0  0  0  0  0  0
  2  1  1  0
  6  1  1  0
  3  2  1  0
  4  3  1  0
  5  4  1  0
  7  4  1  0
  6  5  1  0
  8  7  1  0
  9  7  2  0
A    1
C1
A    2
C6
A    3
C5
A    4
N4
A    5
C3
A    6
C2
A    7
C7
A    8
N8
A    9
N9
M  END
>  <Id>  (9) 
5MNP_MRZ_A_305

>  <ChainId>  (9) 
A

>  <AsymId>  (9) 
F

>  <SeqNum>  (9) 
305

>  <Name>  (9) 
piperidine-1-carboximidamide

>  <SystematicName>  (9) 
piperidine-1-carboximidamide

>  <Synonyms>  (9) 


>  <Type>  (9) 
NON-POLYMER

>  <Formula>  (9) 
C6 H13 N3

>  <ObservedFormula>  (9) 
C6 N3

>  <MolecularWeight>  (9) 
127.188

>  <ModifiedDate>  (9) 
2015-03-20

>  <Parent>  (9) 


>  <OneLetterCode>  (9) 


>  <SubcomponentList>  (9) 


>  <AmbiguousFlag>  (9) 
N

>  <InsertionCode>  (9) 


>  <InstanceId>  (9) 
5MNP_MRZ_A_305

>  <ChemCompId>  (9) 
MRZ

>  <PdbId>  (9) 
5MNP

>  <ResidueNumber>  (9) 
305

>  <InChI>  (9) 
InChI=1S/C6H13N3/c7-6(8)9-4-2-1-3-5-9/h1-5H2,(H3,7,8)

>  <InChIKey>  (9) 
QUUYRYYUKNNNNS-UHFFFAOYSA-N

>  <SMILES>  (9) 
[H]/N=C(\N)/N1CCCCC1

>  <MissingHeavyAtoms>  (9) 
0

>  <Model>  (9) 
1

>  <AltIds>  (9) 


>  <pKI>  (9) 
6.44

>  <ChemblID>  (9) 
CHEMBL103102

>  <standardized_canonical_smiles>  (9) 
N=C(N)N1CCCCC1

$$$$
5MNN_MRZ_A_302
     RDKit          3D

  9  9  0  0  0  0  0  0  0  0999 V2000
   -1.6600  -13.4790  -14.4030 C   0  0  0  0  0  0  0  0  0  0  0  0
   -2.4490  -12.9380  -15.5640 C   0  0  0  0  0  0  0  0  0  0  0  0
   -1.7360  -13.1960  -16.8800 C   0  0  0  0  0  0  0  0  0  0  0  0
   -1.5610  -14.6470  -17.0970 N   0  0  0  0  0  0  0  0  0  0  0  0
   -0.6680  -15.1240  -16.0060 C   0  0  0  0  0  0  0  0  0  0  0  0
   -1.2980  -14.9380  -14.6370 C   0  0  0  0  0  0  0  0  0  0  0  0
   -1.9870  -15.3700  -18.1450 C   0  0  0  0  0  0  0  0  0  0  0  0
   -1.6160  -16.6270  -18.2960 N   0  0  0  0  0  0  0  0  0  0  0  0
   -2.7180  -14.8350  -19.0980 N   0  0  0  0  0  0  0  0  0  0  0  0
  2  1  1  0
  6  1  1  0
  3  2  1  0
  4  3  1  0
  5  4  1  0
  7  4  1  0
  6  5  1  0
  8  7  1  0
  9  7  2  0
A    1
C1
A    2
C6
A    3
C5
A    4
N4
A    5
C3
A    6
C2
A    7
C7
A    8
N8
A    9
N9
M  END
>  <Id>  (10) 
5MNN_MRZ_A_302

>  <ChainId>  (10) 
A

>  <AsymId>  (10) 
C

>  <SeqNum>  (10) 
302

>  <Name>  (10) 
piperidine-1-carboximidamide

>  <SystematicName>  (10) 
piperidine-1-carboximidamide

>  <Synonyms>  (10) 


>  <Type>  (10) 
NON-POLYMER

>  <Formula>  (10) 
C6 H13 N3

>  <ObservedFormula>  (10) 
C6 N3

>  <MolecularWeight>  (10) 
127.188

>  <ModifiedDate>  (10) 
2015-03-20

>  <Parent>  (10) 


>  <OneLetterCode>  (10) 


>  <SubcomponentList>  (10) 


>  <AmbiguousFlag>  (10) 
N

>  <InsertionCode>  (10) 


>  <InstanceId>  (10) 
5MNN_MRZ_A_302

>  <ChemCompId>  (10) 
MRZ

>  <PdbId>  (10) 
5MNN

>  <ResidueNumber>  (10) 
302

>  <InChI>  (10) 
InChI=1S/C6H13N3/c7-6(8)9-4-2-1-3-5-9/h1-5H2,(H3,7,8)

>  <InChIKey>  (10) 
QUUYRYYUKNNNNS-UHFFFAOYSA-N

>  <SMILES>  (10) 
[H]/N=C(\N)/N1CCCCC1

>  <MissingHeavyAtoms>  (10) 
0

>  <Model>  (10) 
1

>  <AltIds>  (10) 


>  <pKI>  (10) 
6.44

>  <ChemblID>  (10) 
CHEMBL103102

>  <standardized_canonical_smiles>  (10) 
N=C(N)N1CCCCC1

$$$$
3PYH_3YH_A_481
     RDKit          3D

 33 36  0  0  0  0  0  0  0  0999 V2000
  -15.0980   14.9340    4.4110 N   0  0  0  0  0  0  0  0  0  0  0  0
  -13.8130   14.9850    4.7570 C   0  0  0  0  0  0  0  0  0  0  0  0
  -13.1230   13.9300    4.8430 N   0  0  0  0  0  0  0  0  0  0  0  0
  -13.1780   16.3110    5.0370 C   0  0  0  0  0  0  0  0  0  0  0  0
  -13.8430   17.4930    4.7140 C   0  0  0  0  0  0  0  0  0  0  0  0
  -13.2380   18.7230    4.9600 C   0  0  0  0  0  0  0  0  0  0  0  0
  -11.9670   18.7640    5.5480 C   0  0  0  0  0  0  0  0  0  0  0  0
  -11.3190   17.5820    5.8910 C   0  0  0  0  0  0  0  0  0  0  0  0
  -11.9170   16.3540    5.6220 C   0  0  0  0  0  0  0  0  0  0  0  0
   -9.9570   17.5770    6.4870 C   0  0  0  0  0  0  0  0  0  0  0  0
   -9.5150   17.7500    7.9090 C   0  0  0  0  0  0  0  0  0  0  0  0
  -10.4320   18.0120    9.0730 C   0  0  0  0  0  0  0  0  0  0  0  0
  -11.5750   18.4170    8.8810 O   0  0  0  0  0  0  0  0  0  0  0  0
   -9.9310   17.7980   10.2970 N   0  0  0  0  0  0  0  0  0  0  0  0
  -10.6720   17.8750   11.4420 C   0  0  0  0  0  0  0  0  0  0  0  0
  -11.2470   19.0910   11.8170 C   0  0  0  0  0  0  0  0  0  0  0  0
  -11.9920   19.2000   12.9930 C   0  0  0  0  0  0  0  0  0  0  0  0
  -12.1530   18.0970   13.8260 C   0  0  0  0  0  0  0  0  0  0  0  0
  -11.5780   16.8810   13.4620 C   0  0  0  0  0  0  0  0  0  0  0  0
  -10.8270   16.7720   12.2860 C   0  0  0  0  0  0  0  0  0  0  0  0
  -12.9700   18.2030   15.0760 C   0  0  0  0  0  0  0  0  0  0  0  0
  -14.2790   17.7090   14.9990 C   0  0  0  0  0  0  0  0  0  0  0  0
  -15.1370   17.7500   16.0970 C   0  0  0  0  0  0  0  0  0  0  0  0
  -14.6770   18.2860   17.2920 C   0  0  0  0  0  0  0  0  0  0  0  0
  -13.3760   18.7710   17.3750 C   0  0  0  0  0  0  0  0  0  0  0  0
  -12.5090   18.7410   16.2820 C   0  0  0  0  0  0  0  0  0  0  0  0
  -11.0370   19.3520   16.5130 S   0  0  0  0  0  0  0  0  0  0  0  0
  -10.0280   18.5990   15.8180 O   0  0  0  0  0  0  0  0  0  0  0  0
  -10.7990   19.3110   17.9250 O   0  0  0  0  0  0  0  0  0  0  0  0
  -10.9890   20.8830   16.0510 N   0  0  0  0  0  0  0  0  0  0  0  0
   -8.8360   17.3450    5.7620 N   0  0  0  0  0  0  0  0  0  0  0  0
   -7.8050   17.3840    6.6170 O   0  0  0  0  0  0  0  0  0  0  0  0
   -8.1310   17.6270    7.9280 C   0  0  0  0  0  0  0  0  0  0  0  0
  2  1  2  0
  3  2  1  0
  4  2  1  0
  5  4  2  0
  9  4  1  0
  6  5  1  0
  7  6  2  0
  8  7  1  0
  9  8  2  0
 10  8  1  0
 11 10  1  0
 31 10  2  0
 12 11  1  0
 33 11  2  0
 13 12  2  0
 14 12  1  0
 15 14  1  0
 16 15  2  0
 20 15  1  0
 17 16  1  0
 18 17  2  0
 19 18  1  0
 21 18  1  0
 20 19  2  0
 22 21  2  0
 26 21  1  0
 23 22  1  0
 24 23  2  0
 25 24  1  0
 26 25  2  0
 27 26  1  0
 28 27  2  0
 29 27  2  0
 30 27  1  0
 32 31  1  0
 33 32  1  0
A    1
N1
A    2
C2
A    3
N3
A    4
C4
A    5
C5
A    6
C6
A    7
C7
A    8
C8
A    9
C9
A   10
C10
A   11
C11
A   12
C12
A   13
O13
A   14
N14
A   15
C15
A   16
C16
A   17
C17
A   18
C18
A   19
C19
A   20
C20
A   21
C21
A   22
C22
A   23
C23
A   24
C24
A   25
C25
A   26
C26
A   27
S27
A   28
O28
A   29
O29
A   30
N30
A   31
N39
A   32
O40
A   33
C41
M  END
>  <Id>  (11) 
3PYH_3YH_A_481

>  <ChainId>  (11) 
A

>  <AsymId>  (11) 
C

>  <SeqNum>  (11) 
481

>  <Name>  (11) 
3-(3-carbamimidoylphenyl)-N-(2'-sulfamoylbiphenyl-4-yl)-1,2-oxazole-4-carboxamide

>  <SystematicName>  (11) 
3-(3-carbamimidoylphenyl)-N-[4-(2-sulfamoylphenyl)phenyl]-1,2-oxazole-4-carboxamide

>  <Synonyms>  (11) 


>  <Type>  (11) 
NON-POLYMER

>  <Formula>  (11) 
C23 H19 N5 O4 S

>  <ObservedFormula>  (11) 
C23 S N5 O4

>  <MolecularWeight>  (11) 
461.493

>  <ModifiedDate>  (11) 
2011-12-16

>  <Parent>  (11) 


>  <OneLetterCode>  (11) 


>  <SubcomponentList>  (11) 


>  <AmbiguousFlag>  (11) 
N

>  <InsertionCode>  (11) 


>  <InstanceId>  (11) 
3PYH_3YH_A_481

>  <ChemCompId>  (11) 
3YH

>  <PdbId>  (11) 
3PYH

>  <ResidueNumber>  (11) 
481

>  <InChI>  (11) 
InChI=1S/C23H19N5O4S/c24-22(25)16-5-3-4-15(12-16)21-19(13-32-28-21)23(29)27-17-10-8-14(9-11-17)18-6-1-2-7-20(18)33(26,30)31/h1-13H,(H3,24,25)(H,27,29)(H2,26,30,31)

>  <InChIKey>  (11) 
LPYBKEFBMJIVEB-UHFFFAOYSA-N

>  <SMILES>  (11) 
[H]/N=C(\c1cccc(c1)c2c(con2)C(=O)Nc3ccc(cc3)c4ccccc4S(=O)(=O)N)/N

>  <MissingHeavyAtoms>  (11) 
0

>  <Model>  (11) 
1

>  <AltIds>  (11) 


>  <pKI>  (11) 
7.68

>  <ChemblID>  (11) 
CHEMBL140072

>  <standardized_canonical_smiles>  (11) 
N=C(N)c1cccc(-c2nocc2C(=O)Nc2ccc(-c3ccccc3S(N)(=O)=O)cc2)c1

$$$$
3UQV_3YH_A_481
     RDKit          3D

 33 36  0  0  0  0  0  0  0  0999 V2000
    4.3080  -18.7320   -5.6830 N   0  0  0  0  0  0  0  0  0  0  0  0
    4.8740  -19.8670   -5.2500 C   0  0  0  0  0  0  0  0  0  0  0  0
    4.1380  -20.8230   -4.7000 N   0  0  0  0  0  0  0  0  0  0  0  0
    6.2510  -20.0090   -5.3020 C   0  0  0  0  0  0  0  0  0  0  0  0
    6.9150  -21.1160   -4.7660 C   0  0  0  0  0  0  0  0  0  0  0  0
    8.3020  -21.2260   -4.8220 C   0  0  0  0  0  0  0  0  0  0  0  0
    9.0420  -20.2110   -5.4140 C   0  0  0  0  0  0  0  0  0  0  0  0
    8.3680  -19.1200   -5.9560 C   0  0  0  0  0  0  0  0  0  0  0  0
    6.9840  -19.0160   -5.8930 C   0  0  0  0  0  0  0  0  0  0  0  0
    9.0510  -18.0750   -6.5280 C   0  0  0  0  0  0  0  0  0  0  0  0
    9.5420  -17.9800   -7.8350 C   0  0  0  0  0  0  0  0  0  0  0  0
    9.4340  -19.0110   -8.9850 C   0  0  0  0  0  0  0  0  0  0  0  0
    9.1280  -20.1960   -8.7830 O   0  0  0  0  0  0  0  0  0  0  0  0
    9.6490  -18.5470  -10.2190 N   0  0  0  0  0  0  0  0  0  0  0  0
    9.5690  -19.4400  -11.2300 C   0  0  0  0  0  0  0  0  0  0  0  0
    8.5350  -19.3090  -12.1600 C   0  0  0  0  0  0  0  0  0  0  0  0
    8.4250  -20.2130  -13.2050 C   0  0  0  0  0  0  0  0  0  0  0  0
    9.3470  -21.2660  -13.3530 C   0  0  0  0  0  0  0  0  0  0  0  0
   10.3810  -21.4010  -12.4040 C   0  0  0  0  0  0  0  0  0  0  0  0
   10.4860  -20.4960  -11.3520 C   0  0  0  0  0  0  0  0  0  0  0  0
    9.1370  -22.1600  -14.4270 C   0  0  0  0  0  0  0  0  0  0  0  0
    7.9650  -22.9050  -14.3430 C   0  0  0  0  0  0  0  0  0  0  0  0
    7.6080  -23.8100  -15.3460 C   0  0  0  0  0  0  0  0  0  0  0  0
    8.4310  -23.9780  -16.4600 C   0  0  0  0  0  0  0  0  0  0  0  0
    9.6050  -23.2370  -16.5650 C   0  0  0  0  0  0  0  0  0  0  0  0
    9.9610  -22.3280  -15.5630 C   0  0  0  0  0  0  0  0  0  0  0  0
   11.4600  -21.4660  -15.8660 S   0  0  0  0  0  0  0  0  0  0  0  0
   11.3860  -20.0810  -15.2990 O   0  0  0  0  0  0  0  0  0  0  0  0
   11.5810  -21.3890  -17.3460 O   0  0  0  0  0  0  0  0  0  0  0  0
   12.7640  -22.2970  -15.3020 N   0  0  0  0  0  0  0  0  0  0  0  0
    9.3260  -16.9700   -5.8640 N   0  0  0  0  0  0  0  0  0  0  0  0
   10.0270  -16.1300   -6.7220 O   0  0  0  0  0  0  0  0  0  0  0  0
   10.1370  -16.7940   -7.9420 C   0  0  0  0  0  0  0  0  0  0  0  0
  2  1  2  0
  3  2  1  0
  4  2  1  0
  5  4  2  0
  9  4  1  0
  6  5  1  0
  7  6  2  0
  8  7  1  0
  9  8  2  0
 10  8  1  0
 11 10  1  0
 31 10  2  0
 12 11  1  0
 33 11  2  0
 13 12  2  0
 14 12  1  0
 15 14  1  0
 16 15  2  0
 20 15  1  0
 17 16  1  0
 18 17  2  0
 19 18  1  0
 21 18  1  0
 20 19  2  0
 22 21  2  0
 26 21  1  0
 23 22  1  0
 24 23  2  0
 25 24  1  0
 26 25  2  0
 27 26  1  0
 28 27  2  0
 29 27  2  0
 30 27  1  0
 32 31  1  0
 33 32  1  0
A    1
N1
A    2
C2
A    3
N3
A    4
C4
A    5
C5
A    6
C6
A    7
C7
A    8
C8
A    9
C9
A   10
C10
A   11
C11
A   12
C12
A   13
O13
A   14
N14
A   15
C15
A   16
C16
A   17
C17
A   18
C18
A   19
C19
A   20
C20
A   21
C21
A   22
C22
A   23
C23
A   24
C24
A   25
C25
A   26
C26
A   27
S27
A   28
O28
A   29
O29
A   30
N30
A   31
N39
A   32
O40
A   33
C41
M  END
>  <Id>  (12) 
3UQV_3YH_A_481

>  <ChainId>  (12) 
A

>  <AsymId>  (12) 
C

>  <SeqNum>  (12) 
481

>  <Name>  (12) 
3-(3-carbamimidoylphenyl)-N-(2'-sulfamoylbiphenyl-4-yl)-1,2-oxazole-4-carboxamide

>  <SystematicName>  (12) 
3-(3-carbamimidoylphenyl)-N-[4-(2-sulfamoylphenyl)phenyl]-1,2-oxazole-4-carboxamide

>  <Synonyms>  (12) 


>  <Type>  (12) 
NON-POLYMER

>  <Formula>  (12) 
C23 H19 N5 O4 S

>  <ObservedFormula>  (12) 
C23 S N5 O4

>  <MolecularWeight>  (12) 
461.493

>  <ModifiedDate>  (12) 
2011-12-16

>  <Parent>  (12) 


>  <OneLetterCode>  (12) 


>  <SubcomponentList>  (12) 


>  <AmbiguousFlag>  (12) 
N

>  <InsertionCode>  (12) 


>  <InstanceId>  (12) 
3UQV_3YH_A_481

>  <ChemCompId>  (12) 
3YH

>  <PdbId>  (12) 
3UQV

>  <ResidueNumber>  (12) 
481

>  <InChI>  (12) 
InChI=1S/C23H19N5O4S/c24-22(25)16-5-3-4-15(12-16)21-19(13-32-28-21)23(29)27-17-10-8-14(9-11-17)18-6-1-2-7-20(18)33(26,30)31/h1-13H,(H3,24,25)(H,27,29)(H2,26,30,31)

>  <InChIKey>  (12) 
LPYBKEFBMJIVEB-UHFFFAOYSA-N

>  <SMILES>  (12) 
[H]/N=C(\c1cccc(c1)c2c(con2)C(=O)Nc3ccc(cc3)c4ccccc4S(=O)(=O)N)/N

>  <MissingHeavyAtoms>  (12) 
0

>  <Model>  (12) 
1

>  <AltIds>  (12) 


>  <pKI>  (12) 
7.68

>  <ChemblID>  (12) 
CHEMBL140072

>  <standardized_canonical_smiles>  (12) 
N=C(N)c1cccc(-c2nocc2C(=O)Nc2ccc(-c3ccccc3S(N)(=O)=O)cc2)c1

$$$$
3UQO_3YH_A_481
     RDKit          3D

 33 36  0  0  0  0  0  0  0  0999 V2000
  -14.4230   17.6050    1.3190 N   0  0  0  0  0  0  0  0  0  0  0  0
  -15.1060   18.7310    1.3780 C   0  0  0  0  0  0  0  0  0  0  0  0
  -15.9960   18.9670    0.5140 N   0  0  0  0  0  0  0  0  0  0  0  0
  -14.8190   19.7260    2.4680 C   0  0  0  0  0  0  0  0  0  0  0  0
  -14.2030   19.3510    3.6590 C   0  0  0  0  0  0  0  0  0  0  0  0
  -13.9720   20.3070    4.6450 C   0  0  0  0  0  0  0  0  0  0  0  0
  -14.3520   21.6330    4.4420 C   0  0  0  0  0  0  0  0  0  0  0  0
  -14.9550   21.9840    3.2290 C   0  0  0  0  0  0  0  0  0  0  0  0
  -15.2000   21.0370    2.2600 C   0  0  0  0  0  0  0  0  0  0  0  0
  -15.4050   23.3650    2.9400 C   0  0  0  0  0  0  0  0  0  0  0  0
  -14.6150   24.4730    2.3020 C   0  0  0  0  0  0  0  0  0  0  0  0
  -13.1830   24.3720    1.8890 C   0  0  0  0  0  0  0  0  0  0  0  0
  -12.4450   23.4870    2.3210 O   0  0  0  0  0  0  0  0  0  0  0  0
  -12.7370   25.3180    1.0520 N   0  0  0  0  0  0  0  0  0  0  0  0
  -11.4350   25.3680    0.6770 C   0  0  0  0  0  0  0  0  0  0  0  0
  -10.4300   25.5360    1.6290 C   0  0  0  0  0  0  0  0  0  0  0  0
   -9.0970   25.6010    1.2480 C   0  0  0  0  0  0  0  0  0  0  0  0
   -8.7700   25.5170   -0.1070 C   0  0  0  0  0  0  0  0  0  0  0  0
   -9.7730   25.3630   -1.0530 C   0  0  0  0  0  0  0  0  0  0  0  0
  -11.1000   25.2950   -0.6650 C   0  0  0  0  0  0  0  0  0  0  0  0
   -7.3620   25.5990   -0.5630 C   0  0  0  0  0  0  0  0  0  0  0  0
   -6.7930   24.4800   -1.1340 C   0  0  0  0  0  0  0  0  0  0  0  0
   -5.4810   24.4880   -1.5800 C   0  0  0  0  0  0  0  0  0  0  0  0
   -4.7360   25.6580   -1.4860 C   0  0  0  0  0  0  0  0  0  0  0  0
   -5.3180   26.7970   -0.9330 C   0  0  0  0  0  0  0  0  0  0  0  0
   -6.6230   26.7890   -0.4640 C   0  0  0  0  0  0  0  0  0  0  0  0
   -7.2140   28.1580    0.1480 S   0  0  0  0  0  0  0  0  0  0  0  0
   -8.4400   28.5140   -0.5150 O   0  0  0  0  0  0  0  0  0  0  0  0
   -6.2510   29.2170   -0.0400 O   0  0  0  0  0  0  0  0  0  0  0  0
   -7.4880   28.0700    1.7140 N   0  0  0  0  0  0  0  0  0  0  0  0
  -16.6500   23.8470    3.1700 N   0  0  0  0  0  0  0  0  0  0  0  0
  -16.6480   25.1230    2.7560 O   0  0  0  0  0  0  0  0  0  0  0  0
  -15.4620   25.5720    2.2250 C   0  0  0  0  0  0  0  0  0  0  0  0
  2  1  2  0
  3  2  1  0
  4  2  1  0
  5  4  2  0
  9  4  1  0
  6  5  1  0
  7  6  2  0
  8  7  1  0
  9  8  2  0
 10  8  1  0
 11 10  1  0
 31 10  2  0
 12 11  1  0
 33 11  2  0
 13 12  2  0
 14 12  1  0
 15 14  1  0
 16 15  2  0
 20 15  1  0
 17 16  1  0
 18 17  2  0
 19 18  1  0
 21 18  1  0
 20 19  2  0
 22 21  2  0
 26 21  1  0
 23 22  1  0
 24 23  2  0
 25 24  1  0
 26 25  2  0
 27 26  1  0
 28 27  2  0
 29 27  2  0
 30 27  1  0
 32 31  1  0
 33 32  1  0
A    1
N1
A    2
C2
A    3
N3
A    4
C4
A    5
C5
A    6
C6
A    7
C7
A    8
C8
A    9
C9
A   10
C10
A   11
C11
A   12
C12
A   13
O13
A   14
N14
A   15
C15
A   16
C16
A   17
C17
A   18
C18
A   19
C19
A   20
C20
A   21
C21
A   22
C22
A   23
C23
A   24
C24
A   25
C25
A   26
C26
A   27
S27
A   28
O28
A   29
O29
A   30
N30
A   31
N39
A   32
O40
A   33
C41
M  END
>  <Id>  (13) 
3UQO_3YH_A_481

>  <ChainId>  (13) 
A

>  <AsymId>  (13) 
C

>  <SeqNum>  (13) 
481

>  <Name>  (13) 
3-(3-carbamimidoylphenyl)-N-(2'-sulfamoylbiphenyl-4-yl)-1,2-oxazole-4-carboxamide

>  <SystematicName>  (13) 
3-(3-carbamimidoylphenyl)-N-[4-(2-sulfamoylphenyl)phenyl]-1,2-oxazole-4-carboxamide

>  <Synonyms>  (13) 


>  <Type>  (13) 
NON-POLYMER

>  <Formula>  (13) 
C23 H19 N5 O4 S

>  <ObservedFormula>  (13) 
C23 S N5 O4

>  <MolecularWeight>  (13) 
461.493

>  <ModifiedDate>  (13) 
2011-12-16

>  <Parent>  (13) 


>  <OneLetterCode>  (13) 


>  <SubcomponentList>  (13) 


>  <AmbiguousFlag>  (13) 
N

>  <InsertionCode>  (13) 


>  <InstanceId>  (13) 
3UQO_3YH_A_481

>  <ChemCompId>  (13) 
3YH

>  <PdbId>  (13) 
3UQO

>  <ResidueNumber>  (13) 
481

>  <InChI>  (13) 
InChI=1S/C23H19N5O4S/c24-22(25)16-5-3-4-15(12-16)21-19(13-32-28-21)23(29)27-17-10-8-14(9-11-17)18-6-1-2-7-20(18)33(26,30)31/h1-13H,(H3,24,25)(H,27,29)(H2,26,30,31)

>  <InChIKey>  (13) 
LPYBKEFBMJIVEB-UHFFFAOYSA-N

>  <SMILES>  (13) 
[H]/N=C(\c1cccc(c1)c2c(con2)C(=O)Nc3ccc(cc3)c4ccccc4S(=O)(=O)N)/N

>  <MissingHeavyAtoms>  (13) 
0

>  <Model>  (13) 
1

>  <AltIds>  (13) 


>  <pKI>  (13) 
7.68

>  <ChemblID>  (13) 
CHEMBL140072

>  <standardized_canonical_smiles>  (13) 
N=C(N)c1cccc(-c2nocc2C(=O)Nc2ccc(-c3ccccc3S(N)(=O)=O)cc2)c1

$$$$
3V13_3YH_A_481
     RDKit          3D

 33 36  0  0  0  0  0  0  0  0999 V2000
  -13.0900   14.0230    3.8860 N   0  0  0  0  0  0  0  0  0  0  0  0
  -13.8150   15.1420    3.8030 C   0  0  0  0  0  0  0  0  0  0  0  0
  -15.0840   14.9950    3.4200 N   0  0  0  0  0  0  0  0  0  0  0  0
  -13.2280   16.4240    4.0250 C   0  0  0  0  0  0  0  0  0  0  0  0
  -13.8690   17.6100    3.6520 C   0  0  0  0  0  0  0  0  0  0  0  0
  -13.2410   18.8420    3.8550 C   0  0  0  0  0  0  0  0  0  0  0  0
  -11.9640   18.8970    4.4390 C   0  0  0  0  0  0  0  0  0  0  0  0
  -11.3260   17.7380    4.8380 C   0  0  0  0  0  0  0  0  0  0  0  0
  -11.9660   16.5230    4.6280 C   0  0  0  0  0  0  0  0  0  0  0  0
  -10.0430   17.7380    5.4160 C   0  0  0  0  0  0  0  0  0  0  0  0
   -9.6420   17.8670    6.7630 C   0  0  0  0  0  0  0  0  0  0  0  0
  -10.5580   18.0720    7.9940 C   0  0  0  0  0  0  0  0  0  0  0  0
  -11.7040   18.4830    7.7940 O   0  0  0  0  0  0  0  0  0  0  0  0
  -10.0570   17.7530    9.2130 N   0  0  0  0  0  0  0  0  0  0  0  0
  -10.8060   17.8720   10.3610 C   0  0  0  0  0  0  0  0  0  0  0  0
  -10.9510   16.7870   11.2180 C   0  0  0  0  0  0  0  0  0  0  0  0
  -11.7240   16.8540   12.3860 C   0  0  0  0  0  0  0  0  0  0  0  0
  -12.3930   18.0320   12.7370 C   0  0  0  0  0  0  0  0  0  0  0  0
  -12.2700   19.1150   11.8850 C   0  0  0  0  0  0  0  0  0  0  0  0
  -11.4800   19.0480   10.7240 C   0  0  0  0  0  0  0  0  0  0  0  0
  -13.2150   18.0720   13.8920 C   0  0  0  0  0  0  0  0  0  0  0  0
  -14.5080   17.5190   13.7940 C   0  0  0  0  0  0  0  0  0  0  0  0
  -15.3980   17.4980   14.8970 C   0  0  0  0  0  0  0  0  0  0  0  0
  -15.0470   18.0070   16.1320 C   0  0  0  0  0  0  0  0  0  0  0  0
  -13.7680   18.5670   16.2160 C   0  0  0  0  0  0  0  0  0  0  0  0
  -12.8620   18.5960   15.1380 C   0  0  0  0  0  0  0  0  0  0  0  0
  -11.3020   19.3550   15.4580 S   0  0  0  0  0  0  0  0  0  0  0  0
  -10.2440   18.5810   14.7420 O   0  0  0  0  0  0  0  0  0  0  0  0
  -11.0650   19.3690   16.9470 O   0  0  0  0  0  0  0  0  0  0  0  0
  -11.3910   20.7920   14.8900 N   0  0  0  0  0  0  0  0  0  0  0  0
   -8.9320   17.5880    4.7100 N   0  0  0  0  0  0  0  0  0  0  0  0
   -7.7980   17.5900    5.5640 O   0  0  0  0  0  0  0  0  0  0  0  0
   -8.2960   17.8020    6.8340 C   0  0  0  0  0  0  0  0  0  0  0  0
  2  1  2  0
  3  2  1  0
  4  2  1  0
  5  4  2  0
  9  4  1  0
  6  5  1  0
  7  6  2  0
  8  7  1  0
  9  8  2  0
 10  8  1  0
 11 10  1  0
 31 10  2  0
 12 11  1  0
 33 11  2  0
 13 12  2  0
 14 12  1  0
 15 14  1  0
 16 15  2  0
 20 15  1  0
 17 16  1  0
 18 17  2  0
 19 18  1  0
 21 18  1  0
 20 19  2  0
 22 21  2  0
 26 21  1  0
 23 22  1  0
 24 23  2  0
 25 24  1  0
 26 25  2  0
 27 26  1  0
 28 27  2  0
 29 27  2  0
 30 27  1  0
 32 31  1  0
 33 32  1  0
A    1
N1
A    2
C2
A    3
N3
A    4
C4
A    5
C5
A    6
C6
A    7
C7
A    8
C8
A    9
C9
A   10
C10
A   11
C11
A   12
C12
A   13
O13
A   14
N14
A   15
C15
A   16
C16
A   17
C17
A   18
C18
A   19
C19
A   20
C20
A   21
C21
A   22
C22
A   23
C23
A   24
C24
A   25
C25
A   26
C26
A   27
S27
A   28
O28
A   29
O29
A   30
N30
A   31
N39
A   32
O40
A   33
C41
M  END
>  <Id>  (14) 
3V13_3YH_A_481

>  <ChainId>  (14) 
A

>  <AsymId>  (14) 
C

>  <SeqNum>  (14) 
481

>  <Name>  (14) 
3-(3-carbamimidoylphenyl)-N-(2'-sulfamoylbiphenyl-4-yl)-1,2-oxazole-4-carboxamide

>  <SystematicName>  (14) 
3-(3-carbamimidoylphenyl)-N-[4-(2-sulfamoylphenyl)phenyl]-1,2-oxazole-4-carboxamide

>  <Synonyms>  (14) 


>  <Type>  (14) 
NON-POLYMER

>  <Formula>  (14) 
C23 H19 N5 O4 S

>  <ObservedFormula>  (14) 
C23 S N5 O4

>  <MolecularWeight>  (14) 
461.493

>  <ModifiedDate>  (14) 
2011-12-16

>  <Parent>  (14) 


>  <OneLetterCode>  (14) 


>  <SubcomponentList>  (14) 


>  <AmbiguousFlag>  (14) 
N

>  <InsertionCode>  (14) 


>  <InstanceId>  (14) 
3V13_3YH_A_481

>  <ChemCompId>  (14) 
3YH

>  <PdbId>  (14) 
3V13

>  <ResidueNumber>  (14) 
481

>  <InChI>  (14) 
InChI=1S/C23H19N5O4S/c24-22(25)16-5-3-4-15(12-16)21-19(13-32-28-21)23(29)27-17-10-8-14(9-11-17)18-6-1-2-7-20(18)33(26,30)31/h1-13H,(H3,24,25)(H,27,29)(H2,26,30,31)

>  <InChIKey>  (14) 
LPYBKEFBMJIVEB-UHFFFAOYSA-N

>  <SMILES>  (14) 
[H]/N=C(\c1cccc(c1)c2c(con2)C(=O)Nc3ccc(cc3)c4ccccc4S(=O)(=O)N)/N

>  <MissingHeavyAtoms>  (14) 
0

>  <Model>  (14) 
1

>  <AltIds>  (14) 


>  <pKI>  (14) 
7.68

>  <ChemblID>  (14) 
CHEMBL140072

>  <standardized_canonical_smiles>  (14) 
N=C(N)c1cccc(-c2nocc2C(=O)Nc2ccc(-c3ccccc3S(N)(=O)=O)cc2)c1

$$$$
1K1O_IGN_A_999
     RDKit          3D

 31 32  0  0  0  0  0  0  0  0999 V2000
   43.4400   22.9820   50.9150 C   0  0  0  0  0  0  0  0  0  0  0  0
   44.5390   23.4540   51.1630 O   0  0  0  0  0  0  0  0  0  0  0  0
   43.2750   21.6880   50.5110 N   0  0  0  0  0  0  0  0  0  0  0  0
   44.4400   20.8410   50.3640 C   0  0  0  0  0  0  0  0  0  0  0  0
   44.2490   19.5460   51.1810 C   0  0  0  0  0  0  0  0  0  0  0  0
   45.6050   19.0610   51.7200 C   0  0  0  0  0  0  0  0  0  0  0  0
   45.4150   17.9810   52.6720 N   0  0  0  0  0  0  0  0  0  0  0  0
   45.8710   18.0630   53.8890 C   0  0  0  0  0  0  0  0  0  0  0  0
   46.3220   19.1800   54.4130 N   0  0  0  0  0  0  0  0  0  0  0  0
   45.8990   16.9860   54.6130 N   0  0  0  0  0  0  0  0  0  0  0  0
   42.4870   24.9140   52.0770 N   0  0  0  0  0  0  0  0  0  0  0  0
   42.2220   23.8780   51.0500 C   0  0  0  0  0  0  0  0  0  0  0  0
   42.0170   24.5030   49.6710 C   0  0  0  0  0  0  0  0  0  0  0  0
   40.8310   25.5080   49.6850 C   0  0  0  0  0  0  0  0  0  0  0  0
   41.1820   26.6250   50.7080 C   0  0  0  0  0  0  0  0  0  0  0  0
   41.4450   26.0160   52.1120 C   0  0  0  0  0  0  0  0  0  0  0  0
   43.0750   23.1830   53.4900 O   0  0  0  0  0  0  0  0  0  0  0  0
   42.6750   24.3610   53.3240 C   0  0  0  0  0  0  0  0  0  0  0  0
   42.3870   25.1930   54.5340 C   0  0  0  0  0  0  0  0  0  0  0  0
   41.2530   24.4910   55.3750 C   0  0  0  0  0  0  0  0  0  0  0  0
   39.0480   24.5180   56.5380 C   0  0  0  0  0  0  0  0  0  0  0  0
   40.1120   25.4250   55.8380 C   0  0  0  0  0  0  0  0  0  0  0  0
   39.4760   26.2390   54.6620 C   0  0  0  0  0  0  0  0  0  0  0  0
   38.1080   26.8590   55.0430 C   0  0  0  0  0  0  0  0  0  0  0  0
   37.1670   25.7630   55.5090 C   0  0  0  0  0  0  0  0  0  0  0  0
   37.7150   25.2280   56.8220 C   0  0  0  0  0  0  0  0  0  0  0  0
   43.5210   25.3000   55.4180 N   0  0  0  0  0  0  0  0  0  0  0  0
   44.8470   24.9030   54.9380 C   0  0  0  0  0  0  0  0  0  0  0  0
   45.7340   24.7210   56.1220 C   0  0  0  0  0  0  0  0  0  0  0  0
   45.2390   24.7270   57.2860 O   0  0  0  0  0  0  0  0  0  0  0  0
   47.0460   24.5800   55.9490 O   0  0  0  0  0  0  0  0  0  0  0  0
  2  1  2  0
  3  1  1  0
 12  1  1  0
  4  3  1  0
  5  4  1  0
  6  5  1  0
  7  6  1  0
  8  7  1  0
  9  8  2  0
 10  8  1  0
 12 11  1  0
 16 11  1  0
 18 11  1  0
 13 12  1  0
 14 13  1  0
 15 14  1  0
 16 15  1  0
 18 17  2  0
 19 18  1  0
 20 19  1  0
 27 19  1  0
 22 20  1  0
 22 21  1  0
 26 21  1  0
 23 22  1  0
 24 23  1  0
 25 24  1  0
 26 25  1  0
 28 27  1  0
 29 28  1  0
 30 29  2  0
 31 29  1  0
A    1
C1
A    2
O2
A    3
N3
A    4
C4
A    5
C5
A    6
C6
A    7
N7
A    8
C8
A    9
N9
A   10
N10
A   11
N11
A   12
C12
A   13
C13
A   14
C14
A   15
C15
A   16
C16
A   17
O31
A   18
C32
A   19
C33
A   20
C34
A   21
C51
A   22
C52
A   23
C53
A   24
C54
A   25
C55
A   26
C56
A   27
N21
A   28
C22
A   29
C23
A   30
O24
A   31
O25
M  END
>  <Id>  (15) 
1K1O_IGN_A_999

>  <ChainId>  (15) 
A

>  <AsymId>  (15) 
C

>  <SeqNum>  (15) 
999

>  <Name>  (15) 
{[(1R)-2-((2S)-2-{[(3-{[AMINO(IMINO)METHYL]AMINO}PROPYL)AMINO]CARBONYL}PIPERIDINYL)-1-(CYCLOHEXYLMETHYL)-2-OXOETHYL]AMINO}ACETIC ACID

>  <SystematicName>  (15) 
2-[[(2R)-1-[(2S)-2-(3-carbamimidamidopropylcarbamoyl)piperidin-1-yl]-3-cyclohexyl-1-oxo-propan-2-yl]amino]ethanoic acid

>  <Synonyms>  (15) 
INOGATRAN (ASTRA-ZENECA)

>  <Type>  (15) 
NON-POLYMER

>  <Formula>  (15) 
C21 H38 N6 O4

>  <ObservedFormula>  (15) 
C21 N6 O4

>  <MolecularWeight>  (15) 
438.564

>  <ModifiedDate>  (15) 
2011-06-04

>  <Parent>  (15) 


>  <OneLetterCode>  (15) 


>  <SubcomponentList>  (15) 


>  <AmbiguousFlag>  (15) 
N

>  <InsertionCode>  (15) 


>  <InstanceId>  (15) 
1K1O_IGN_A_999

>  <ChemCompId>  (15) 
IGN

>  <PdbId>  (15) 
1K1O

>  <ResidueNumber>  (15) 
999

>  <InChI>  (15) 
InChI=1S/C21H38N6O4/c22-21(23)25-11-6-10-24-19(30)17-9-4-5-12-27(17)20(31)16(26-14-18(28)29)13-15-7-2-1-3-8-15/h15-17,26H,1-14H2,(H,24,30)(H,28,29)(H4,22,23,25)/t16-,17+/m1/s1

>  <InChIKey>  (15) 
CDPROXZBMHOBTQ-SJORKVTESA-N

>  <SMILES>  (15) 
C1CCC(CC1)C[C@H](C(=O)N2CCCC[C@H]2C(=O)NCCCNC(=N)N)NCC(=O)O

>  <MissingHeavyAtoms>  (15) 
0

>  <Model>  (15) 
1

>  <AltIds>  (15) 


>  <pKI>  (15) 
6.17

>  <ChemblID>  (15) 
CHEMBL114715

>  <standardized_canonical_smiles>  (15) 
N=C(N)NCCCNC(=O)[C@@H]1CCCCN1C(=O)[C@@H](CC1CCCCC1)NCC(=O)O

$$$$
1EB2_BPO_A_1248
     RDKit          3D

 35 38  0  0  0  0  0  0  0  0999 V2000
   12.5690  -12.7510   24.1120 C   0  0  0  0  0  0  0  0  0  0  0  0
   12.8710   -3.7820   24.2480 C   0  0  0  0  0  0  0  0  0  0  0  0
   12.1740   -2.9340   29.2690 N   0  0  0  0  0  0  0  0  0  0  0  0
   13.1970   -3.0100   26.5470 C   0  0  0  0  0  0  0  0  0  0  0  0
    8.7610   -6.3070   23.0030 C   0  0  0  0  0  0  0  0  0  0  0  0
    8.0310   -7.6200   23.4610 C   0  0  0  0  0  0  0  0  0  0  0  0
   11.5950   -4.2710   24.6230 C   0  0  0  0  0  0  0  0  0  0  0  0
   11.1310   -4.1530   25.9410 C   0  0  0  0  0  0  0  0  0  0  0  0
   11.9420   -3.5110   26.9100 C   0  0  0  0  0  0  0  0  0  0  0  0
    7.4290   -4.1700   23.1940 C   0  0  0  0  0  0  0  0  0  0  0  0
    7.6680   -5.3640   22.5020 C   0  0  0  0  0  0  0  0  0  0  0  0
   11.3810   -3.4090   28.2850 C   0  0  0  0  0  0  0  0  0  0  0  0
   10.7130   -4.9350   23.5830 C   0  0  0  0  0  0  0  0  0  0  0  0
    6.4390   -3.2870   22.7710 C   0  0  0  0  0  0  0  0  0  0  0  0
    9.5540  -11.0470   24.2180 C   0  0  0  0  0  0  0  0  0  0  0  0
    8.5510   -9.9030   24.1580 C   0  0  0  0  0  0  0  0  0  0  0  0
    5.8950   -4.8230   20.9640 C   0  0  0  0  0  0  0  0  0  0  0  0
    5.6670   -3.6330   21.6510 C   0  0  0  0  0  0  0  0  0  0  0  0
    6.8930   -5.7200   21.3800 C   0  0  0  0  0  0  0  0  0  0  0  0
   10.9980  -10.6760   23.8290 C   0  0  0  0  0  0  0  0  0  0  0  0
   11.6300  -11.9640   23.2460 C   0  0  0  0  0  0  0  0  0  0  0  0
   11.0150   -9.7630   22.5630 C   0  0  0  0  0  0  0  0  0  0  0  0
   13.6590   -3.1610   25.2330 C   0  0  0  0  0  0  0  0  0  0  0  0
    6.8780   -7.6790   23.8250 O   0  0  0  0  0  0  0  0  0  0  0  0
   11.0060   -4.7500   22.4000 O   0  0  0  0  0  0  0  0  0  0  0  0
    9.5970   -5.6890   24.0250 N   0  0  0  0  0  0  0  0  0  0  0  0
   10.0410   -3.5030   28.3310 N   0  0  0  0  0  0  0  0  0  0  0  0
    8.8270   -8.7720   23.2810 N   0  0  0  0  0  0  0  0  0  0  0  0
   11.3480  -12.2870   22.1100 O   0  0  0  0  0  0  0  0  0  0  0  0
   10.2140   -8.4980   22.8570 C   0  0  0  0  0  0  0  0  0  0  0  0
   13.3920  -13.7170   23.4900 C   0  0  0  0  0  0  0  0  0  0  0  0
   14.2490  -14.4420   24.3040 C   0  0  0  0  0  0  0  0  0  0  0  0
   14.3430  -14.2730   25.6880 C   0  0  0  0  0  0  0  0  0  0  0  0
   13.5370  -13.3150   26.2830 C   0  0  0  0  0  0  0  0  0  0  0  0
   12.6610  -12.5670   25.4920 C   0  0  0  0  0  0  0  0  0  0  0  0
 21  1  1  0
 31  1  2  0
 35  1  1  0
  7  2  2  0
 23  2  1  0
 12  3  1  0
  9  4  1  0
 23  4  2  0
  6  5  1  0
 11  5  1  0
 26  5  1  0
 24  6  2  0
 28  6  1  0
  8  7  1  0
 13  7  1  0
  9  8  2  0
 12  9  1  0
 11 10  2  0
 14 10  1  0
 19 11  1  0
 27 12  2  0
 25 13  2  0
 26 13  1  0
 18 14  2  0
 16 15  1  0
 20 15  1  0
 28 16  1  0
 18 17  1  0
 19 17  2  0
 21 20  1  0
 22 20  1  0
 29 21  2  0
 30 22  1  0
 30 28  1  0
 32 31  1  0
 33 32  2  0
 34 33  1  0
 35 34  2  0
A    1
C22
A    2
C1
A    3
N1
A    4
C2
A    5
C7
A    6
C6
A    7
C5
A    8
C4
A    9
C3
A   10
C11
A   11
C10
A   12
C9
A   13
C8
A   14
C12
A   15
C17
A   16
C16
A   17
C14
A   18
C13
A   19
C15
A   20
C18
A   21
C19
A   22
C20
A   23
C
A   24
O
A   25
O1
A   26
N
A   27
N2
A   28
N3
A   29
O2
A   30
C21
A   31
C23
A   32
C24
A   33
C25
A   34
C26
A   35
C27
M  END
>  <Id>  (16) 
1EB2_BPO_A_1248

>  <ChainId>  (16) 
A

>  <AsymId>  (16) 
D

>  <SeqNum>  (16) 
1248

>  <Name>  (16) 
3-[(Z)-AMINO(IMINO)METHYL]-N-[2-(4-BENZOYL-1-PIPERIDINYL)-2-OXO-1-PHENYLETHYL]BENZAMIDE

>  <SystematicName>  (16) 
3-carbamimidoyl-N-[(1R)-2-oxo-1-phenyl-2-[4-(phenylcarbonyl)piperidin-1-yl]ethyl]benzamide

>  <Synonyms>  (16) 


>  <Type>  (16) 
NON-POLYMER

>  <Formula>  (16) 
C28 H28 N4 O3

>  <ObservedFormula>  (16) 
C28 N4 O3

>  <MolecularWeight>  (16) 
468.547

>  <ModifiedDate>  (16) 
2011-06-04

>  <Parent>  (16) 


>  <OneLetterCode>  (16) 


>  <SubcomponentList>  (16) 


>  <AmbiguousFlag>  (16) 
N

>  <InsertionCode>  (16) 


>  <InstanceId>  (16) 
1EB2_BPO_A_1248

>  <ChemCompId>  (16) 
BPO

>  <PdbId>  (16) 
1EB2

>  <ResidueNumber>  (16) 
1248

>  <InChI>  (16) 
InChI=1S/C28H28N4O3/c29-26(30)22-12-7-13-23(18-22)27(34)31-24(19-8-3-1-4-9-19)28(35)32-16-14-21(15-17-32)25(33)20-10-5-2-6-11-20/h1-13,18,21,24H,14-17H2,(H3,29,30)(H,31,34)/t24-/m1/s1

>  <InChIKey>  (16) 
SEXVRUMCMJFNTJ-XMMPIXPASA-N

>  <SMILES>  (16) 
[H]/N=C(\c1cccc(c1)C(=O)N[C@H](c2ccccc2)C(=O)N3CCC(CC3)C(=O)c4ccccc4)/N

>  <MissingHeavyAtoms>  (16) 
0

>  <Model>  (16) 
1

>  <AltIds>  (16) 


>  <pKI>  (16) 
6.01

>  <ChemblID>  (16) 
CHEMBL283765

>  <standardized_canonical_smiles>  (16) 
N=C(N)c1cccc(C(=O)N[C@@H](C(=O)N2CCC(C(=O)c3ccccc3)CC2)c2ccccc2)c1

$$$$
3UUZ_0CB_B_481
     RDKit          3D

 38 41  0  0  0  0  0  0  0  0999 V2000
   -5.3870  -42.8700   12.4670 C   0  0  0  0  0  0  0  0  0  0  0  0
   -4.5900  -43.9980   12.4230 C   0  0  0  0  0  0  0  0  0  0  0  0
   -5.6870  -44.6930   10.3730 C   0  0  0  0  0  0  0  0  0  0  0  0
   -3.9210  -46.1390   11.3120 C   0  0  0  0  0  0  0  0  0  0  0  0
   -7.1290  -41.5160   11.5120 C   0  0  0  0  0  0  0  0  0  0  0  0
   -8.0900  -41.2930   10.5220 C   0  0  0  0  0  0  0  0  0  0  0  0
   -8.2230  -42.2030    9.4830 C   0  0  0  0  0  0  0  0  0  0  0  0
   -7.4370  -43.3400    9.4430 C   0  0  0  0  0  0  0  0  0  0  0  0
   -6.4860  -43.5590   10.4310 C   0  0  0  0  0  0  0  0  0  0  0  0
   -6.3350  -42.6460   11.4680 C   0  0  0  0  0  0  0  0  0  0  0  0
  -10.5460  -38.5240    8.2210 O   0  0  0  0  0  0  0  0  0  0  0  0
  -10.7270  -39.9220    7.9560 S   0  0  0  0  0  0  0  0  0  0  0  0
  -11.5400  -40.4990    8.9930 O   0  0  0  0  0  0  0  0  0  0  0  0
  -11.4790  -40.1110    6.4770 C   0  0  0  0  0  0  0  0  0  0  0  0
  -11.1350  -41.4100    5.7610 C   0  0  0  0  0  0  0  0  0  0  0  0
  -10.3740  -41.3560    4.7650 O   0  0  0  0  0  0  0  0  0  0  0  0
  -11.6190  -42.4960    6.1660 O   0  0  0  0  0  0  0  0  0  0  0  0
   -9.3760  -40.6530    7.9500 N   0  0  0  0  0  0  0  0  0  0  0  0
   -9.2630  -42.0180    8.4080 C   0  0  0  0  0  0  0  0  0  0  0  0
   -4.7480  -44.9090   11.3700 C   0  0  0  0  0  0  0  0  0  0  0  0
   -4.1680  -47.0220   10.3490 N   0  0  0  0  0  0  0  0  0  0  0  0
   -3.0140  -46.3560   12.1810 N   0  0  0  0  0  0  0  0  0  0  0  0
   -8.2820  -40.0510    7.3580 C   0  0  0  0  0  0  0  0  0  0  0  0
   -7.8170  -40.6780    6.2160 C   0  0  0  0  0  0  0  0  0  0  0  0
   -6.7520  -40.1390    5.5290 C   0  0  0  0  0  0  0  0  0  0  0  0
   -6.1660  -38.9860    6.0140 C   0  0  0  0  0  0  0  0  0  0  0  0
   -6.6210  -38.3440    7.1570 C   0  0  0  0  0  0  0  0  0  0  0  0
   -7.7020  -38.8890    7.8480 C   0  0  0  0  0  0  0  0  0  0  0  0
   -5.1450  -38.5050    5.2720 O   0  0  0  0  0  0  0  0  0  0  0  0
   -4.0230  -37.8490    5.7800 C   0  0  0  0  0  0  0  0  0  0  0  0
   -3.4340  -37.2250    4.5350 C   0  0  0  0  0  0  0  0  0  0  0  0
   -2.2180  -36.4460    4.9480 C   0  0  0  0  0  0  0  0  0  0  0  0
   -1.3240  -37.3490    5.6490 N   0  0  0  0  0  0  0  0  0  0  0  0
   -0.0500  -37.3720    5.3100 C   0  0  0  0  0  0  0  0  0  0  0  0
    0.8680  -38.2990    6.0490 C   0  0  0  0  0  0  0  0  0  0  0  0
    0.3840  -36.6340    4.3850 N   0  0  0  0  0  0  0  0  0  0  0  0
   -1.8230  -38.2090    6.7150 C   0  0  0  0  0  0  0  0  0  0  0  0
   -3.0370  -38.9290    6.1810 C   0  0  0  0  0  0  0  0  0  0  0  0
  2  1  2  0
 10  1  1  0
 20  2  1  0
  9  3  1  0
 20  3  2  0
 20  4  1  0
 21  4  1  0
 22  4  2  0
  6  5  1  0
 10  5  2  0
  7  6  2  0
  8  7  1  0
 19  7  1  0
  9  8  2  0
 10  9  1  0
 12 11  2  0
 13 12  2  0
 14 12  1  0
 18 12  1  0
 15 14  1  0
 16 15  1  0
 17 15  2  0
 19 18  1  0
 23 18  1  0
 24 23  2  0
 28 23  1  0
 25 24  1  0
 26 25  2  0
 27 26  1  0
 29 26  1  0
 28 27  2  0
 30 29  1  0
 31 30  1  0
 38 30  1  0
 32 31  1  0
 33 32  1  0
 34 33  1  0
 37 33  1  0
 35 34  1  0
 36 34  2  0
 38 37  1  0
A    1
C13
A    2
C14
A    3
C16
A    4
C22
A    5
C1
A    6
C2
A    7
C3
A    8
C4
A    9
C5
A   10
C6
A   11
O36
A   12
S32
A   13
O38
A   14
C34
A   15
C53
A   16
O57
A   17
O54
A   18
N30
A   19
C28
A   20
C15
A   21
N26
A   22
N24
A   23
C40
A   24
C46
A   25
C45
A   26
C44
A   27
C43
A   28
C42
A   29
O59
A   30
C61
A   31
C67
A   32
C66
A   33
N65
A   34
C74
A   35
C76
A   36
N82
A   37
C64
A   38
C63
M  END
>  <Id>  (17) 
3UUZ_0CB_B_481

>  <ChainId>  (17) 
B

>  <AsymId>  (17) 
I

>  <SeqNum>  (17) 
481

>  <Name>  (17) 
{[(7-carbamimidoylnaphthalen-2-yl)methyl][4-({1-[(1E)-ethanimidoyl]piperidin-4-yl}oxy)phenyl]sulfamoyl}acetic acid

>  <SystematicName>  (17) 
2-[(7-carbamimidoylnaphthalen-2-yl)methyl-[4-(1-ethanimidoylpiperidin-4-yl)oxyphenyl]sulfamoyl]ethanoic acid

>  <Synonyms>  (17) 


>  <Type>  (17) 
NON-POLYMER

>  <Formula>  (17) 
C27 H31 N5 O5 S

>  <ObservedFormula>  (17) 
C27 S N5 O5

>  <MolecularWeight>  (17) 
537.631

>  <ModifiedDate>  (17) 
2012-11-30

>  <Parent>  (17) 


>  <OneLetterCode>  (17) 


>  <SubcomponentList>  (17) 


>  <AmbiguousFlag>  (17) 
N

>  <InsertionCode>  (17) 


>  <InstanceId>  (17) 
3UUZ_0CB_B_481

>  <ChemCompId>  (17) 
0CB

>  <PdbId>  (17) 
3UUZ

>  <ResidueNumber>  (17) 
481

>  <InChI>  (17) 
InChI=1S/C27H31N5O5S/c1-18(28)31-12-10-25(11-13-31)37-24-8-6-23(7-9-24)32(38(35,36)17-26(33)34)16-19-2-3-20-4-5-21(27(29)30)15-22(20)14-19/h2-9,14-15,25,28H,10-13,16-17H2,1H3,(H3,29,30)(H,33,34)/b28-18+

>  <InChIKey>  (17) 
NPBKHEMDWREFJJ-MTDXEUNCSA-N

>  <SMILES>  (17) 
[H]/N=C(\C)/N1CCC(CC1)Oc2ccc(cc2)N(Cc3ccc4ccc(cc4c3)/C(=N\[H])/N)S(=O)(=O)CC(=O)O

>  <MissingHeavyAtoms>  (17) 
0

>  <Model>  (17) 
1

>  <AltIds>  (17) 


>  <pKI>  (17) 
6.8

>  <ChemblID>  (17) 
CHEMBL20240

>  <standardized_canonical_smiles>  (17) 
CC(=N)N1CCC(Oc2ccc(N(Cc3ccc4ccc(C(=N)N)cc4c3)S(=O)(=O)CC(=O)O)cc2)CC1

$$$$
1QCP_RWJ_A_300
     RDKit          3D

 27 29  0  0  0  0  0  0  0  0999 V2000
   43.1030   26.2430   43.7750 C   0  0  0  0  0  0  0  0  0  0  0  0
   40.2300   24.9390   49.9820 C   0  0  0  0  0  0  0  0  0  0  0  0
   45.3570   18.9440   51.4400 C   0  0  0  0  0  0  0  0  0  0  0  0
   46.3080   18.0280   54.8680 N   0  0  0  0  0  0  0  0  0  0  0  0
   44.9000   24.3400   49.6020 O   0  0  0  0  0  0  0  0  0  0  0  0
   42.6950   25.0580   44.4110 C   0  0  0  0  0  0  0  0  0  0  0  0
   45.5690   20.3120   50.7810 C   0  0  0  0  0  0  0  0  0  0  0  0
   43.6020   22.5540   49.2140 N   0  0  0  0  0  0  0  0  0  0  0  0
   42.4600   25.9900   49.9070 C   0  0  0  0  0  0  0  0  0  0  0  0
   41.2720   23.8560   50.1580 C   0  0  0  0  0  0  0  0  0  0  0  0
   45.8900   23.5580   46.1550 S   0  0  0  0  0  0  0  0  0  0  0  0
   43.6080   24.2810   45.1280 C   0  0  0  0  0  0  0  0  0  0  0  0
   42.5780   24.5400   50.1400 C   0  0  0  0  0  0  0  0  0  0  0  0
   44.4360   26.6540   43.8570 C   0  0  0  0  0  0  0  0  0  0  0  0
   43.3920   23.1090   45.7860 N   0  0  0  0  0  0  0  0  0  0  0  0
   44.9700   24.7220   45.2100 C   0  0  0  0  0  0  0  0  0  0  0  0
   45.8730   17.8830   53.6230 C   0  0  0  0  0  0  0  0  0  0  0  0
   45.4720   20.4110   46.8570 O   0  0  0  0  0  0  0  0  0  0  0  0
   43.7960   23.8010   49.6310 C   0  0  0  0  0  0  0  0  0  0  0  0
   44.4710   21.3240   47.2760 C   0  0  0  0  0  0  0  0  0  0  0  0
   45.3600   25.8960   44.5780 C   0  0  0  0  0  0  0  0  0  0  0  0
   44.6940   21.6910   48.7430 C   0  0  0  0  0  0  0  0  0  0  0  0
   45.7970   18.9510   52.8320 N   0  0  0  0  0  0  0  0  0  0  0  0
   45.5360   16.6800   53.1820 N   0  0  0  0  0  0  0  0  0  0  0  0
   44.6670   20.4120   49.5810 C   0  0  0  0  0  0  0  0  0  0  0  0
   44.5070   22.5840   46.3940 C   0  0  0  0  0  0  0  0  0  0  0  0
   40.9830   26.2770   49.7880 C   0  0  0  0  0  0  0  0  0  0  0  0
 21 14  1  0
 15 12  1  0
 27  2  1  0
 26 11  1  0
 23 17  1  0
 18 20  2  0
 14  1  2  0
 16 21  2  0
 17 24  2  0
 13 10  1  0
 25  7  1  0
 12  6  2  0
 19  5  2  0
 15 26  2  0
  9 27  1  0
 22 20  1  0
 11 16  1  0
 22 25  1  0
  2 10  1  0
 26 20  1  0
  3 23  1  0
  7  3  1  0
 13  9  1  0
 12 16  1  0
  1  6  1  0
 17  4  1  0
 19  8  1  0
  8 22  1  0
 13 19  1  0
A    1
C65
A    2
C54
A    3
CD
A    4
NH2
A    5
OP
A    6
C66
A    7
CG
A    8
N
A    9
C52
A   10
C55
A   11
S5
A   12
C61
A   13
C51
A   14
C64
A   15
N5
A   16
C62
A   17
CZ
A   18
O
A   19
CP
A   20
C
A   21
C63
A   22
CA
A   23
NE
A   24
NH1
A   25
CB
A   26
C5
A   27
C53
M  END
>  <InstanceId>  (18) 
1QCP_RWJ

>  <ChemCompId>  (18) 
RWJ

>  <PdbId>  (18) 
1QCP

>  <ChainId>  (18) 
A

>  <ResidueNumber>  (18) 
300

>  <InsertionCode>  (18) 
null

>  <Model>  (18) 
1

>  <AltIds>  (18) 


>  <MissingHeavyAtoms>  (18) 
0

>  <ObservedFormula>  (18) 
C19 N5 O2 S

>  <AsymId>  (18) 
C

>  <SeqNum>  (18) 
300

>  <Name>  (18) 
CYCLOPENTANECARBOXYLIC ACID [1-(BENZOTHIAZOLE-2-CARBONYL)-4-GUANIDINO-BUTYL]-AMIDE

>  <SystematicName>  (18) 
N-[(2S)-1-(1,3-benzothiazol-2-yl)-5-carbamimidamido-1-oxo-pentan-2-yl]cyclopentanecarboxamide

>  <Synonyms>  (18) 
RWJ-51084

>  <Type>  (18) 
NON-POLYMER

>  <Formula>  (18) 
C19 H25 N5 O2 S

>  <MolecularWeight>  (18) 
387.499

>  <ModifiedDate>  (18) 
2011-06-04

>  <Parent>  (18) 


>  <OneLetterCode>  (18) 


>  <SubcomponentList>  (18) 


>  <AmbiguousFlag>  (18) 
N

>  <InChI>  (18) 
InChI=1S/C19H25N5O2S/c20-19(21)22-11-5-9-14(23-17(26)12-6-1-2-7-12)16(25)18-24-13-8-3-4-10-15(13)27-18/h3-4,8,10,12,14H,1-2,5-7,9,11H2,(H,23,26)(H4,20,21,22)/t14-/m0/s1

>  <InChIKey>  (18) 
NQABUEUFRXDDFI-AWEZNQCLSA-N

>  <SMILES>  (18) 
c1ccc2c(c1)nc(s2)C(=O)[C@H](CCCNC(=N)N)NC(=O)C3CCCC3

>  <pKI>  (18) 
7.52

>  <ChemblID>  (18) 
CHEMBL360684

>  <standardized_canonical_smiles>  (18) 
N=C(N)NCCCC(NC(=O)C1CCCC1)C(=O)c1nc2ccccc2s1

$$$$
2ZDK_GOL_A_907
     RDKit          3D

  6  5  0  0  0  0  0  0  0  0999 V2000
  -12.7840   16.8080    5.6340 C   0  0  0  0  0  0  0  0  0  0  0  0
  -11.8520   17.5870    6.4100 O   0  0  0  0  0  0  0  0  0  0  0  0
  -14.2180   17.1760    6.0760 C   0  0  0  0  0  0  0  0  0  0  0  0
  -14.9130   15.9530    6.3810 O   0  0  0  0  0  0  0  0  0  0  0  0
  -15.0020   17.9900    5.0280 C   0  0  0  0  0  0  0  0  0  0  0  0
  -14.1790   18.9630    4.3510 O   0  0  0  0  0  0  0  0  0  0  0  0
  2  1  1  0
  3  1  1  0
  4  3  1  0
  5  3  1  0
  6  5  1  0
A    1
C1
A    2
O1
A    3
C2
A    4
O2
A    5
C3
A    6
O3
M  END
>  <Id>  (19) 
2ZDK_GOL_A_907

>  <ChainId>  (19) 
A

>  <AsymId>  (19) 
L

>  <SeqNum>  (19) 
907

>  <Name>  (19) 
GLYCEROL

>  <SystematicName>  (19) 
propane-1,2,3-triol

>  <Synonyms>  (19) 
GLYCERIN; PROPANE-1,2,3-TRIOL

>  <Type>  (19) 
NON-POLYMER

>  <Formula>  (19) 
C3 H8 O3

>  <ObservedFormula>  (19) 
C3 O3

>  <MolecularWeight>  (19) 
92.094

>  <ModifiedDate>  (19) 
2011-06-04

>  <Parent>  (19) 


>  <OneLetterCode>  (19) 


>  <SubcomponentList>  (19) 


>  <AmbiguousFlag>  (19) 
N

>  <InsertionCode>  (19) 


>  <InstanceId>  (19) 
2ZDK_GOL_A_907

>  <ChemCompId>  (19) 
GOL

>  <PdbId>  (19) 
2ZDK

>  <ResidueNumber>  (19) 
907

>  <InChI>  (19) 
InChI=1S/C3H8O3/c4-1-3(6)2-5/h3-6H,1-2H2

>  <InChIKey>  (19) 
PEDCQBHIVMGVHV-UHFFFAOYSA-N

>  <SMILES>  (19) 
C(C(CO)O)O

>  <MissingHeavyAtoms>  (19) 
0

>  <Model>  (19) 
1

>  <AltIds>  (19) 


>  <pKI>  (19) 
7.3

>  <ChemblID>  (19) 
-

>  <standardized_canonical_smiles>  (19) 
Cc1cc(Br)c([O-])c(-c2cc3cc(C(N)=[NH2+])ccc3[nH]2)c1

$$$$
1O3I_907_A_246
     RDKit          3D

 21 23  0  0  0  0  0  0  0  0999 V2000
   44.2440   -3.0370   25.8830 C   0  0  0  0  0  0  0  0  0  0  0  0
   44.6460   -1.6870   26.0030 C   0  0  0  0  0  0  0  0  0  0  0  0
   44.5720   -1.0070   27.2140 C   0  0  0  0  0  0  0  0  0  0  0  0
   44.1010   -1.6690   28.3180 C   0  0  0  0  0  0  0  0  0  0  0  0
   43.6970   -2.9570   28.2460 C   0  0  0  0  0  0  0  0  0  0  0  0
   43.7470   -3.6920   27.0540 C   0  0  0  0  0  0  0  0  0  0  0  0
   44.3520   -3.6950   24.6090 C   0  0  0  0  0  0  0  0  0  0  0  0
   43.9890   -4.9600   24.4500 N   0  0  0  0  0  0  0  0  0  0  0  0
   44.8280   -2.9980   23.5970 N   0  0  0  0  0  0  0  0  0  0  0  0
   43.9570   -1.2390   29.5440 N   0  0  0  0  0  0  0  0  0  0  0  0
   43.2920   -3.3100   29.5090 C   0  0  0  0  0  0  0  0  0  0  0  0
   43.4810   -2.1820   30.3070 C   0  0  0  0  0  0  0  0  0  0  0  0
   43.2640   -2.0470   31.7000 C   0  0  0  0  0  0  0  0  0  0  0  0
   42.9160   -3.1610   32.4830 C   0  0  0  0  0  0  0  0  0  0  0  0
   42.7070   -3.0250   33.8780 C   0  0  0  0  0  0  0  0  0  0  0  0
   42.3430   -4.1930   34.7610 C   0  0  0  0  0  0  0  0  0  0  0  0
   42.8370   -1.8170   34.4930 C   0  0  0  0  0  0  0  0  0  0  0  0
   43.1740   -0.7480   33.7360 C   0  0  0  0  0  0  0  0  0  0  0  0
   43.3930   -0.8150   32.3460 C   0  0  0  0  0  0  0  0  0  0  0  0
   43.7220    0.3330   31.6420 O   0  0  0  0  0  0  0  0  0  0  0  0
   43.3620    0.8820   34.7170 Br  0  0  0  0  0  0  0  0  0  0  0  0
  2  1  2  0
  6  1  1  0
  7  1  1  0
  3  2  1  0
  4  3  2  0
  5  4  1  0
 10  4  1  0
  6  5  2  0
 11  5  1  0
  8  7  1  0
  9  7  2  0
 12 10  1  0
 12 11  2  0
 13 12  1  0
 14 13  2  0
 19 13  1  0
 15 14  1  0
 16 15  1  0
 17 15  2  0
 18 17  1  0
 19 18  2  0
 21 18  1  0
 20 19  1  0
M  CHG  2   9   1  20  -1
A    1
C1
A    2
C2
A    3
C3
A    4
C4
A    5
C5
A    6
C6
A    7
C7
A    8
N1
A    9
N2
A   10
N3
A   11
CN4
A   12
C8
A   13
C1'
A   14
C2'
A   15
C3'
A   16
CV'
A   17
C4'
A   18
C5'
A   19
C6'
A   20
O6'
A   21
BR5'
M  END
>  <Id>  (20) 
1O3I_907_A_246

>  <ChainId>  (20) 
A

>  <AsymId>  (20) 
C

>  <SeqNum>  (20) 
246

>  <Name>  (20) 
2-{5-[AMINO(IMINIO)METHYL]-1H-INDOL-2-YL}-6-BROMO-4-METHYLBENZENOLATE

>  <SystematicName>  (20) 
2-[5-(amino-azaniumylidene-methyl)-1H-indol-2-yl]-6-bromo-4-methyl-phenolate

>  <Synonyms>  (20) 
CRA_9076

>  <Type>  (20) 
NON-POLYMER

>  <Formula>  (20) 
C16 H14 Br N3 O

>  <ObservedFormula>  (20) 
Br C16 N3 O

>  <MolecularWeight>  (20) 
344.206

>  <ModifiedDate>  (20) 
2011-06-04

>  <Parent>  (20) 


>  <OneLetterCode>  (20) 


>  <SubcomponentList>  (20) 


>  <AmbiguousFlag>  (20) 
N

>  <InsertionCode>  (20) 


>  <InstanceId>  (20) 
1O3I_907_A_246

>  <ChemCompId>  (20) 
907

>  <PdbId>  (20) 
1O3I

>  <ResidueNumber>  (20) 
246

>  <InChI>  (20) 
InChI=1S/C16H14BrN3O/c1-8-4-11(15(21)12(17)5-8)14-7-10-6-9(16(18)19)2-3-13(10)20-14/h2-7,20-21H,1H3,(H3,18,19)

>  <InChIKey>  (20) 
BVTBOJXEAPSOEB-UHFFFAOYSA-N

>  <SMILES>  (20) 
Cc1cc(c(c(c1)Br)[O-])c2cc3cc(ccc3[nH]2)C(=[NH2+])N

>  <MissingHeavyAtoms>  (20) 
0

>  <Model>  (20) 
1

>  <AltIds>  (20) 


>  <pKI>  (20) 
7.3

>  <ChemblID>  (20) 
-

>  <standardized_canonical_smiles>  (20) 
Cc1cc(Br)c([O-])c(-c2cc3cc(C(N)=[NH2+])ccc3[nH]2)c1

$$$$
1O3H_907_A_246
     RDKit          3D

 21 23  0  0  0  0  0  0  0  0999 V2000
   43.9920   -3.0850   26.0230 C   0  0  0  0  0  0  0  0  0  0  0  0
   44.3040   -1.7060   26.1130 C   0  0  0  0  0  0  0  0  0  0  0  0
   44.1810   -1.0010   27.3120 C   0  0  0  0  0  0  0  0  0  0  0  0
   43.7530   -1.6780   28.4200 C   0  0  0  0  0  0  0  0  0  0  0  0
   43.4410   -2.9980   28.3750 C   0  0  0  0  0  0  0  0  0  0  0  0
   43.5400   -3.7500   27.1920 C   0  0  0  0  0  0  0  0  0  0  0  0
   44.1550   -3.7530   24.7840 C   0  0  0  0  0  0  0  0  0  0  0  0
   43.8530   -5.0280   24.6700 N   0  0  0  0  0  0  0  0  0  0  0  0
   44.6180   -3.0670   23.7560 N   0  0  0  0  0  0  0  0  0  0  0  0
   43.5800   -1.2370   29.6300 N   0  0  0  0  0  0  0  0  0  0  0  0
   43.0550   -3.3590   29.6590 C   0  0  0  0  0  0  0  0  0  0  0  0
   43.1700   -2.1950   30.4230 C   0  0  0  0  0  0  0  0  0  0  0  0
   42.9440   -2.0180   31.8010 C   0  0  0  0  0  0  0  0  0  0  0  0
   42.5940   -3.1000   32.6100 C   0  0  0  0  0  0  0  0  0  0  0  0
   42.3750   -2.9290   33.9790 C   0  0  0  0  0  0  0  0  0  0  0  0
   41.9910   -4.1270   34.8490 C   0  0  0  0  0  0  0  0  0  0  0  0
   42.5070   -1.6770   34.5530 C   0  0  0  0  0  0  0  0  0  0  0  0
   42.8540   -0.6020   33.7630 C   0  0  0  0  0  0  0  0  0  0  0  0
   43.0760   -0.7450   32.3950 C   0  0  0  0  0  0  0  0  0  0  0  0
   43.3980    0.3720   31.6390 O   0  0  0  0  0  0  0  0  0  0  0  0
   43.0890    1.1080   34.6370 Br  0  0  0  0  0  0  0  0  0  0  0  0
  2  1  2  0
  6  1  1  0
  7  1  1  0
  3  2  1  0
  4  3  2  0
  5  4  1  0
 10  4  1  0
  6  5  2  0
 11  5  1  0
  8  7  1  0
  9  7  2  0
 12 10  1  0
 12 11  2  0
 13 12  1  0
 14 13  2  0
 19 13  1  0
 15 14  1  0
 16 15  1  0
 17 15  2  0
 18 17  1  0
 19 18  2  0
 21 18  1  0
 20 19  1  0
M  CHG  2   9   1  20  -1
A    1
C1
A    2
C2
A    3
C3
A    4
C4
A    5
C5
A    6
C6
A    7
C7
A    8
N1
A    9
N2
A   10
N3
A   11
CN4
A   12
C8
A   13
C1'
A   14
C2'
A   15
C3'
A   16
CV'
A   17
C4'
A   18
C5'
A   19
C6'
A   20
O6'
A   21
BR5'
M  END
>  <Id>  (21) 
1O3H_907_A_246

>  <ChainId>  (21) 
A

>  <AsymId>  (21) 
D

>  <SeqNum>  (21) 
246

>  <Name>  (21) 
2-{5-[AMINO(IMINIO)METHYL]-1H-INDOL-2-YL}-6-BROMO-4-METHYLBENZENOLATE

>  <SystematicName>  (21) 
2-[5-(amino-azaniumylidene-methyl)-1H-indol-2-yl]-6-bromo-4-methyl-phenolate

>  <Synonyms>  (21) 
CRA_9076

>  <Type>  (21) 
NON-POLYMER

>  <Formula>  (21) 
C16 H14 Br N3 O

>  <ObservedFormula>  (21) 
Br C16 N3 O

>  <MolecularWeight>  (21) 
344.206

>  <ModifiedDate>  (21) 
2011-06-04

>  <Parent>  (21) 


>  <OneLetterCode>  (21) 


>  <SubcomponentList>  (21) 


>  <AmbiguousFlag>  (21) 
N

>  <InsertionCode>  (21) 


>  <InstanceId>  (21) 
1O3H_907_A_246

>  <ChemCompId>  (21) 
907

>  <PdbId>  (21) 
1O3H

>  <ResidueNumber>  (21) 
246

>  <InChI>  (21) 
InChI=1S/C16H14BrN3O/c1-8-4-11(15(21)12(17)5-8)14-7-10-6-9(16(18)19)2-3-13(10)20-14/h2-7,20-21H,1H3,(H3,18,19)

>  <InChIKey>  (21) 
BVTBOJXEAPSOEB-UHFFFAOYSA-N

>  <SMILES>  (21) 
Cc1cc(c(c(c1)Br)[O-])c2cc3cc(ccc3[nH]2)C(=[NH2+])N

>  <MissingHeavyAtoms>  (21) 
0

>  <Model>  (21) 
1

>  <AltIds>  (21) 


>  <pKI>  (21) 
7.3

>  <ChemblID>  (21) 
-

>  <standardized_canonical_smiles>  (21) 
Cc1cc(Br)c([O-])c(-c2cc3cc(C(N)=[NH2+])ccc3[nH]2)c1

$$$$
4TPY_BEN_A_334
     RDKit          3D

  9  9  0  0  0  0  0  0  0  0999 V2000
   28.6010   43.6350   16.9920 C   0  0  0  0  0  0  0  0  0  0  0  0
   27.8980   43.0750   15.9700 C   0  0  0  0  0  0  0  0  0  0  0  0
   27.6920   43.7350   14.7700 C   0  0  0  0  0  0  0  0  0  0  0  0
   28.0300   45.0190   14.6180 C   0  0  0  0  0  0  0  0  0  0  0  0
   28.5900   45.6630   15.6970 C   0  0  0  0  0  0  0  0  0  0  0  0
   28.9700   44.9540   16.8720 C   0  0  0  0  0  0  0  0  0  0  0  0
   28.9540   42.8880   18.2110 C   0  0  0  0  0  0  0  0  0  0  0  0
   28.5810   41.6180   18.3950 N   0  0  0  0  0  0  0  0  0  0  0  0
   29.5730   43.4160   19.2500 N   0  0  0  0  0  0  0  0  0  0  0  0
  2  1  2  0
  6  1  1  0
  7  1  1  0
  3  2  1  0
  4  3  2  0
  5  4  1  0
  6  5  2  0
  8  7  2  0
  9  7  1  0
A    1
C1
A    2
C2
A    3
C3
A    4
C4
A    5
C5
A    6
C6
A    7
C
A    8
N1
A    9
N2
M  END
>  <Id>  (22) 
4TPY_BEN_A_334

>  <ChainId>  (22) 
A

>  <AsymId>  (22) 
IA

>  <SeqNum>  (22) 
334

>  <Name>  (22) 
BENZAMIDINE

>  <SystematicName>  (22) 
benzenecarboximidamide

>  <Synonyms>  (22) 


>  <Type>  (22) 
NON-POLYMER

>  <Formula>  (22) 
C7 H8 N2

>  <ObservedFormula>  (22) 
C7 N2

>  <MolecularWeight>  (22) 
120.152

>  <ModifiedDate>  (22) 
2011-06-04

>  <Parent>  (22) 


>  <OneLetterCode>  (22) 


>  <SubcomponentList>  (22) 


>  <AmbiguousFlag>  (22) 
N

>  <InsertionCode>  (22) 


>  <InstanceId>  (22) 
4TPY_BEN_A_334

>  <ChemCompId>  (22) 
BEN

>  <PdbId>  (22) 
4TPY

>  <ResidueNumber>  (22) 
334

>  <InChI>  (22) 
InChI=1S/C7H8N2/c8-7(9)6-4-2-1-3-5-6/h1-5H,(H3,8,9)

>  <InChIKey>  (22) 
PXXJHWLDUBFPOL-UHFFFAOYSA-N

>  <SMILES>  (22) 
[H]/N=C(\c1ccccc1)/N

>  <MissingHeavyAtoms>  (22) 
0

>  <Model>  (22) 
1

>  <AltIds>  (22) 


>  <pKI>  (22) 
6.77

>  <ChemblID>  (22) 
-

>  <standardized_canonical_smiles>  (22) 
Cc1cc(Br)c([O-])c(-c2nc3cc(C(N)=[NH2+])ccc3[nH]2)c1

$$$$
1O3J_334_A_246
     RDKit          3D

 21 23  0  0  0  0  0  0  0  0999 V2000
   44.1980   -3.0840   26.0990 C   0  0  0  0  0  0  0  0  0  0  0  0
   44.6300   -1.7460   26.1740 C   0  0  0  0  0  0  0  0  0  0  0  0
   44.5890   -1.0420   27.3690 C   0  0  0  0  0  0  0  0  0  0  0  0
   44.1150   -1.6840   28.4810 C   0  0  0  0  0  0  0  0  0  0  0  0
   43.6790   -2.9550   28.4740 C   0  0  0  0  0  0  0  0  0  0  0  0
   43.7050   -3.7020   27.2840 C   0  0  0  0  0  0  0  0  0  0  0  0
   44.2690   -3.7640   24.8580 C   0  0  0  0  0  0  0  0  0  0  0  0
   43.8920   -5.0210   24.7680 N   0  0  0  0  0  0  0  0  0  0  0  0
   44.7160   -3.1280   23.7960 N   0  0  0  0  0  0  0  0  0  0  0  0
   43.9770   -1.2760   29.6820 N   0  0  0  0  0  0  0  0  0  0  0  0
   43.2690   -3.3480   29.6670 N   0  0  0  0  0  0  0  0  0  0  0  0
   43.4790   -2.2480   30.3870 C   0  0  0  0  0  0  0  0  0  0  0  0
   43.2550   -2.0950   31.7790 C   0  0  0  0  0  0  0  0  0  0  0  0
   42.9140   -3.1900   32.5880 C   0  0  0  0  0  0  0  0  0  0  0  0
   42.6990   -3.0160   33.9660 C   0  0  0  0  0  0  0  0  0  0  0  0
   42.3240   -4.1950   34.8770 C   0  0  0  0  0  0  0  0  0  0  0  0
   42.8260   -1.7580   34.5460 C   0  0  0  0  0  0  0  0  0  0  0  0
   43.1690   -0.6520   33.7620 C   0  0  0  0  0  0  0  0  0  0  0  0
   43.3760   -0.8220   32.3860 C   0  0  0  0  0  0  0  0  0  0  0  0
   43.6720    0.2990   31.6290 O   0  0  0  0  0  0  0  0  0  0  0  0
   43.4270    1.1160   34.5720 Br  0  0  0  0  0  0  0  0  0  0  0  0
  2  1  2  0
  6  1  1  0
  7  1  1  0
  3  2  1  0
  4  3  2  0
  5  4  1  0
 10  4  1  0
  6  5  2  0
 11  5  1  0
  8  7  1  0
  9  7  2  0
 12 10  1  0
 12 11  2  0
 13 12  1  0
 14 13  2  0
 19 13  1  0
 15 14  1  0
 16 15  1  0
 17 15  2  0
 18 17  1  0
 19 18  2  0
 21 18  1  0
 20 19  1  0
M  CHG  2   9   1  20  -1
A    1
C1
A    2
C2
A    3
C3
A    4
C4
A    5
C5
A    6
C6
A    7
C7
A    8
N1
A    9
N2
A   10
N3
A   11
N4
A   12
C8
A   13
C1'
A   14
C2'
A   15
C3'
A   16
CV'
A   17
C4'
A   18
C5'
A   19
C6'
A   20
O6'
A   21
BR5'
M  END
>  <Id>  (23) 
1O3J_334_A_246

>  <ChainId>  (23) 
A

>  <AsymId>  (23) 
C

>  <SeqNum>  (23) 
246

>  <Name>  (23) 
2-{5-[AMINO(IMINIO)METHYL]-1H-BENZIMIDAZOL-2-YL}-6-BROMO-4-METHYLBENZENOLATE

>  <SystematicName>  (23) 
2-[5-(amino-azaniumylidene-methyl)-1H-benzimidazol-2-yl]-6-bromo-4-methyl-phenolate

>  <Synonyms>  (23) 
CRA_9334

>  <Type>  (23) 
NON-POLYMER

>  <Formula>  (23) 
C15 H13 Br N4 O

>  <ObservedFormula>  (23) 
Br C15 N4 O

>  <MolecularWeight>  (23) 
345.194

>  <ModifiedDate>  (23) 
2011-06-04

>  <Parent>  (23) 


>  <OneLetterCode>  (23) 


>  <SubcomponentList>  (23) 


>  <AmbiguousFlag>  (23) 
N

>  <InsertionCode>  (23) 


>  <InstanceId>  (23) 
1O3J_334_A_246

>  <ChemCompId>  (23) 
334

>  <PdbId>  (23) 
1O3J

>  <ResidueNumber>  (23) 
246

>  <InChI>  (23) 
InChI=1S/C15H13BrN4O/c1-7-4-9(13(21)10(16)5-7)15-19-11-3-2-8(14(17)18)6-12(11)20-15/h2-6,21H,1H3,(H3,17,18)(H,19,20)

>  <InChIKey>  (23) 
XKCHOMIJYLHXLI-UHFFFAOYSA-N

>  <SMILES>  (23) 
Cc1cc(c(c(c1)Br)[O-])c2[nH]c3ccc(cc3n2)C(=[NH2+])N

>  <MissingHeavyAtoms>  (23) 
0

>  <Model>  (23) 
1

>  <AltIds>  (23) 


>  <pKI>  (23) 
6.77

>  <ChemblID>  (23) 
-

>  <standardized_canonical_smiles>  (23) 
Cc1cc(Br)c([O-])c(-c2nc3cc(C(N)=[NH2+])ccc3[nH]2)c1

$$$$
1O3K_334_A_246
     RDKit          3D

 21 23  0  0  0  0  0  0  0  0999 V2000
   43.9150   -3.0920   26.1460 C   0  0  0  0  0  0  0  0  0  0  0  0
   44.2420   -1.7110   26.2460 C   0  0  0  0  0  0  0  0  0  0  0  0
   44.1100   -1.0170   27.4450 C   0  0  0  0  0  0  0  0  0  0  0  0
   43.6600   -1.7010   28.5350 C   0  0  0  0  0  0  0  0  0  0  0  0
   43.3340   -3.0220   28.4660 C   0  0  0  0  0  0  0  0  0  0  0  0
   43.4450   -3.7550   27.2920 C   0  0  0  0  0  0  0  0  0  0  0  0
   44.0690   -3.7710   24.9270 C   0  0  0  0  0  0  0  0  0  0  0  0
   43.8060   -5.0600   24.8600 N   0  0  0  0  0  0  0  0  0  0  0  0
   44.4790   -3.0860   23.8770 N   0  0  0  0  0  0  0  0  0  0  0  0
   43.4580   -1.2820   29.7430 N   0  0  0  0  0  0  0  0  0  0  0  0
   42.9180   -3.4080   29.7040 N   0  0  0  0  0  0  0  0  0  0  0  0
   43.0100   -2.2650   30.4850 C   0  0  0  0  0  0  0  0  0  0  0  0
   42.7980   -2.1530   31.8580 C   0  0  0  0  0  0  0  0  0  0  0  0
   42.5490   -3.2970   32.6470 C   0  0  0  0  0  0  0  0  0  0  0  0
   42.3350   -3.1720   34.0260 C   0  0  0  0  0  0  0  0  0  0  0  0
   42.0340   -4.3620   34.9380 C   0  0  0  0  0  0  0  0  0  0  0  0
   42.3730   -1.9330   34.6090 C   0  0  0  0  0  0  0  0  0  0  0  0
   42.6160   -0.8230   33.8360 C   0  0  0  0  0  0  0  0  0  0  0  0
   42.8320   -0.8830   32.4640 C   0  0  0  0  0  0  0  0  0  0  0  0
   43.0550    0.2890   31.7380 O   0  0  0  0  0  0  0  0  0  0  0  0
   42.6340    0.8430   34.7960 Br  0  0  0  0  0  0  0  0  0  0  0  0
  2  1  2  0
  6  1  1  0
  7  1  1  0
  3  2  1  0
  4  3  2  0
  5  4  1  0
 10  4  1  0
  6  5  2  0
 11  5  1  0
  8  7  1  0
  9  7  2  0
 12 10  1  0
 12 11  2  0
 13 12  1  0
 14 13  2  0
 19 13  1  0
 15 14  1  0
 16 15  1  0
 17 15  2  0
 18 17  1  0
 19 18  2  0
 21 18  1  0
 20 19  1  0
M  CHG  2   9   1  20  -1
A    1
C1
A    2
C2
A    3
C3
A    4
C4
A    5
C5
A    6
C6
A    7
C7
A    8
N1
A    9
N2
A   10
N3
A   11
N4
A   12
C8
A   13
C1'
A   14
C2'
A   15
C3'
A   16
CV'
A   17
C4'
A   18
C5'
A   19
C6'
A   20
O6'
A   21
BR5'
M  END
>  <Id>  (24) 
1O3K_334_A_246

>  <ChainId>  (24) 
A

>  <AsymId>  (24) 
D

>  <SeqNum>  (24) 
246

>  <Name>  (24) 
2-{5-[AMINO(IMINIO)METHYL]-1H-BENZIMIDAZOL-2-YL}-6-BROMO-4-METHYLBENZENOLATE

>  <SystematicName>  (24) 
2-[5-(amino-azaniumylidene-methyl)-1H-benzimidazol-2-yl]-6-bromo-4-methyl-phenolate

>  <Synonyms>  (24) 
CRA_9334

>  <Type>  (24) 
NON-POLYMER

>  <Formula>  (24) 
C15 H13 Br N4 O

>  <ObservedFormula>  (24) 
Br C15 N4 O

>  <MolecularWeight>  (24) 
345.194

>  <ModifiedDate>  (24) 
2011-06-04

>  <Parent>  (24) 


>  <OneLetterCode>  (24) 


>  <SubcomponentList>  (24) 


>  <AmbiguousFlag>  (24) 
N

>  <InsertionCode>  (24) 


>  <InstanceId>  (24) 
1O3K_334_A_246

>  <ChemCompId>  (24) 
334

>  <PdbId>  (24) 
1O3K

>  <ResidueNumber>  (24) 
246

>  <InChI>  (24) 
InChI=1S/C15H13BrN4O/c1-7-4-9(13(21)10(16)5-7)15-19-11-3-2-8(14(17)18)6-12(11)20-15/h2-6,21H,1H3,(H3,17,18)(H,19,20)

>  <InChIKey>  (24) 
XKCHOMIJYLHXLI-UHFFFAOYSA-N

>  <SMILES>  (24) 
Cc1cc(c(c(c1)Br)[O-])c2[nH]c3ccc(cc3n2)C(=[NH2+])N

>  <MissingHeavyAtoms>  (24) 
0

>  <Model>  (24) 
1

>  <AltIds>  (24) 


>  <pKI>  (24) 
6.77

>  <ChemblID>  (24) 
-

>  <standardized_canonical_smiles>  (24) 
Cc1cc(Br)c([O-])c(-c2nc3cc(C(N)=[NH2+])ccc3[nH]2)c1

$$$$
1O2R_CR9_A_246
     RDKit          3D

 28 31  0  0  0  0  0  0  0  0999 V2000
   43.9030   -3.1690   25.8140 C   0  0  0  0  0  0  0  0  0  0  0  0
   43.8390   -1.7620   25.6620 C   0  0  0  0  0  0  0  0  0  0  0  0
   43.9350   -1.1800   24.4200 F   0  0  0  0  0  0  0  0  0  0  0  0
   43.6490   -0.9390   26.7680 C   0  0  0  0  0  0  0  0  0  0  0  0
   43.5140   -1.5320   28.0060 C   0  0  0  0  0  0  0  0  0  0  0  0
   43.5690   -2.8630   28.1860 C   0  0  0  0  0  0  0  0  0  0  0  0
   43.7670   -3.7180   27.0950 C   0  0  0  0  0  0  0  0  0  0  0  0
   44.1070   -4.0070   24.7080 C   0  0  0  0  0  0  0  0  0  0  0  0
   43.6870   -5.2550   24.7110 N   0  0  0  0  0  0  0  0  0  0  0  0
   44.7420   -3.5080   23.6680 N   0  0  0  0  0  0  0  0  0  0  0  0
   43.3370   -1.0430   29.1810 N   0  0  0  0  0  0  0  0  0  0  0  0
   43.4280   -3.2250   29.4500 N   0  0  0  0  0  0  0  0  0  0  0  0
   43.2890   -2.0360   30.0170 C   0  0  0  0  0  0  0  0  0  0  0  0
   43.0420   -1.8400   31.3980 C   0  0  0  0  0  0  0  0  0  0  0  0
   42.8880   -2.9470   32.2420 C   0  0  0  0  0  0  0  0  0  0  0  0
   42.6410   -2.7790   33.6070 C   0  0  0  0  0  0  0  0  0  0  0  0
   42.5490   -1.5140   34.1420 C   0  0  0  0  0  0  0  0  0  0  0  0
   42.6950   -0.3750   33.3480 C   0  0  0  0  0  0  0  0  0  0  0  0
   42.9470   -0.5400   31.9590 C   0  0  0  0  0  0  0  0  0  0  0  0
   43.0960    0.5590   31.1230 O   0  0  0  0  0  0  0  0  0  0  0  0
   42.5770    0.8770   33.9600 O   0  0  0  0  0  0  0  0  0  0  0  0
   42.4880    2.5050   35.8220 C   0  0  0  0  0  0  0  0  0  0  0  0
   43.1530    2.9440   37.1920 C   0  0  0  0  0  0  0  0  0  0  0  0
   44.6580    3.1240   37.0360 C   0  0  0  0  0  0  0  0  0  0  0  0
   45.2580    1.8440   36.3800 C   0  0  0  0  0  0  0  0  0  0  0  0
   44.6320    1.5950   34.9730 C   0  0  0  0  0  0  0  0  0  0  0  0
   43.1610    1.2360   35.2300 C   0  0  0  0  0  0  0  0  0  0  0  0
   41.0500    2.1800   36.1360 C   0  0  0  0  0  0  0  0  0  0  0  0
  2  1  2  0
  7  1  1  0
  8  1  1  0
  3  2  1  0
  4  2  1  0
  5  4  2  0
  6  5  1  0
 11  5  1  0
  7  6  2  0
 12  6  1  0
  9  8  1  0
 10  8  2  0
 13 11  1  0
 13 12  2  0
 14 13  1  0
 15 14  2  0
 19 14  1  0
 16 15  1  0
 17 16  2  0
 18 17  1  0
 19 18  2  0
 21 18  1  0
 20 19  1  0
 27 21  1  0
 23 22  1  0
 27 22  1  0
 28 22  1  0
 24 23  1  0
 25 24  1  0
 26 25  1  0
 27 26  1  0
M  CHG  2  10   1  20  -1
A    1
C1
A    2
C2
A    3
F2
A    4
C3
A    5
C4
A    6
C5
A    7
C6
A    8
C7
A    9
N1
A   10
N2
A   11
N3
A   12
N4
A   13
C8
A   14
C1'
A   15
C2'
A   16
C3'
A   17
C4'
A   18
C5'
A   19
C6'
A   20
O6'
A   21
O5'
A   22
C1B
A   23
C2B
A   24
C3B
A   25
C4B
A   26
C5B
A   27
C6B
A   28
C1A
M  END
>  <Id>  (25) 
1O2R_CR9_A_246

>  <ChainId>  (25) 
A

>  <AsymId>  (25) 
E

>  <SeqNum>  (25) 
246

>  <Name>  (25) 
2-{5-[AMINO(IMINIO)METHYL]-6-FLUORO-1H-BENZIMIDAZOL-2-YL}-6-[(2-METHYLCYCLOHEXYL)OXY]BENZENOLATE

>  <SystematicName>  (25) 
2-[5-(amino-azaniumylidene-methyl)-6-fluoro-1H-benzimidazol-2-yl]-6-[(1S,2S)-2-methylcyclohexyl]oxy-phenolate

>  <Synonyms>  (25) 
CRA_11092

>  <Type>  (25) 
NON-POLYMER

>  <Formula>  (25) 
C21 H23 F N4 O2

>  <ObservedFormula>  (25) 
C21 F N4 O2

>  <MolecularWeight>  (25) 
382.431

>  <ModifiedDate>  (25) 
2011-06-04

>  <Parent>  (25) 


>  <OneLetterCode>  (25) 


>  <SubcomponentList>  (25) 


>  <AmbiguousFlag>  (25) 
N

>  <InsertionCode>  (25) 


>  <InstanceId>  (25) 
1O2R_CR9_A_246

>  <ChemCompId>  (25) 
CR9

>  <PdbId>  (25) 
1O2R

>  <ResidueNumber>  (25) 
246

>  <InChI>  (25) 
InChI=1S/C21H23FN4O2/c1-11-5-2-3-7-17(11)28-18-8-4-6-12(19(18)27)21-25-15-9-13(20(23)24)14(22)10-16(15)26-21/h4,6,8-11,17,27H,2-3,5,7H2,1H3,(H3,23,24)(H,25,26)/t11-,17-/m0/s1

>  <InChIKey>  (25) 
CMCDWLMEDRBWIR-GTNSWQLSSA-N

>  <SMILES>  (25) 
C[C@H]1CCCC[C@@H]1Oc2cccc(c2[O-])c3[nH]c4cc(c(cc4n3)C(=[NH2+])N)F

>  <MissingHeavyAtoms>  (25) 
0

>  <Model>  (25) 
1

>  <AltIds>  (25) 


>  <pKI>  (25) 
5.21

>  <ChemblID>  (25) 
-

>  <standardized_canonical_smiles>  (25) 
C[C@H]1CCCC[C@@H]1Oc1cccc(-c2nc3cc(C(N)=[NH2+])c(F)cc3[nH]2)c1[O-]

$$$$
1QB6_623_A_300
     RDKit          3D

 29 31  0  0  0  0  0  0  0  0999 V2000
    8.9010   25.1190   20.0180 C   0  0  0  0  0  0  0  0  0  0  0  0
    7.6380   25.2630   20.3870 F   0  0  0  0  0  0  0  0  0  0  0  0
    9.7590   26.2110   19.7440 C   0  0  0  0  0  0  0  0  0  0  0  0
   11.0890   25.9250   19.3520 C   0  0  0  0  0  0  0  0  0  0  0  0
   11.9410   26.8980   19.0900 F   0  0  0  0  0  0  0  0  0  0  0  0
   11.5310   24.5740   19.2450 C   0  0  0  0  0  0  0  0  0  0  0  0
   10.6810   23.5470   19.5070 N   0  0  0  0  0  0  0  0  0  0  0  0
    9.4110   23.8090   19.8800 C   0  0  0  0  0  0  0  0  0  0  0  0
    9.2320   27.6020   19.8710 C   0  0  0  0  0  0  0  0  0  0  0  0
   12.7750   24.2960   18.8630 O   0  0  0  0  0  0  0  0  0  0  0  0
    8.5610   22.7850   20.1740 O   0  0  0  0  0  0  0  0  0  0  0  0
    9.0790   21.5800   20.5750 C   0  0  0  0  0  0  0  0  0  0  0  0
    8.8030   20.5380   19.6860 C   0  0  0  0  0  0  0  0  0  0  0  0
    9.2670   19.2450   19.9590 C   0  0  0  0  0  0  0  0  0  0  0  0
   10.0360   18.9970   21.1150 C   0  0  0  0  0  0  0  0  0  0  0  0
   10.3390   20.0510   22.0110 C   0  0  0  0  0  0  0  0  0  0  0  0
    9.8580   21.3480   21.7070 C   0  0  0  0  0  0  0  0  0  0  0  0
    8.9950   18.2340   19.0120 C   0  0  0  0  0  0  0  0  0  0  0  0
    8.2300   18.4260   17.9630 N   0  0  0  0  0  0  0  0  0  0  0  0
    9.3620   16.9880   19.1360 N   0  0  0  0  0  0  0  0  0  0  0  0
   13.9450   24.9590   18.7290 C   0  0  0  0  0  0  0  0  0  0  0  0
   14.2760   25.8810   19.7320 C   0  0  0  0  0  0  0  0  0  0  0  0
   15.4920   26.5820   19.6820 C   0  0  0  0  0  0  0  0  0  0  0  0
   16.3970   26.3530   18.6330 C   0  0  0  0  0  0  0  0  0  0  0  0
   16.1070   25.4160   17.6080 C   0  0  0  0  0  0  0  0  0  0  0  0
   14.8720   24.7250   17.6820 C   0  0  0  0  0  0  0  0  0  0  0  0
   17.0270   25.1780   16.5630 C   0  0  0  0  0  0  0  0  0  0  0  0
   18.2080   25.7980   16.4030 N   0  0  0  0  0  0  0  0  0  0  0  0
   16.7940   24.3050   15.5860 N   0  0  0  0  0  0  0  0  0  0  0  0
  2  1  1  0
  3  1  2  0
  8  1  1  0
  4  3  1  0
  9  3  1  0
  5  4  1  0
  6  4  2  0
  7  6  1  0
 10  6  1  0
  8  7  2  0
 11  8  1  0
 21 10  1  0
 12 11  1  0
 13 12  2  0
 17 12  1  0
 14 13  1  0
 15 14  2  0
 18 14  1  0
 16 15  1  0
 17 16  2  0
 19 18  2  0
 20 18  1  0
 22 21  2  0
 26 21  1  0
 23 22  1  0
 24 23  2  0
 25 24  1  0
 26 25  2  0
 27 25  1  0
 28 27  2  0
 29 27  1  0
M  CHG  1   7   1
A    1
C1
A    2
F1
A    3
C2
A    4
C3
A    5
F3
A    6
C4
A    7
N5
A    8
C6
A    9
C7
A   10
O1
A   11
O2
A   12
C21
A   13
C22
A   14
C23
A   15
C24
A   16
C25
A   17
C26
A   18
C27
A   19
N21
A   20
N22
A   21
C11
A   22
C12
A   23
C13
A   24
C14
A   25
C15
A   26
C16
A   27
C17
A   28
N11
A   29
N12
M  END
>  <Id>  (26) 
1QB6_623_A_300

>  <ChainId>  (26) 
A

>  <AsymId>  (26) 
D

>  <SeqNum>  (26) 
300

>  <Name>  (26) 
3,3'-[3,5-DIFLUORO-4-METHYL-2,6-PYRIDYLENEBIS(OXY)]-BIS(BENZENECARBOXIMIDAMIDE)

>  <SystematicName>  (26) 
3-[6-(3-carbamimidoylphenoxy)-3,5-difluoro-4-methyl-pyridin-1-ium-2-yl]oxybenzenecarboximidamide

>  <Synonyms>  (26) 
ZK-805623

>  <Type>  (26) 
NON-POLYMER

>  <Formula>  (26) 
C20 H18 F2 N5 O2

>  <ObservedFormula>  (26) 
C20 F2 N5 O2

>  <MolecularWeight>  (26) 
398.386

>  <ModifiedDate>  (26) 
2011-06-04

>  <Parent>  (26) 


>  <OneLetterCode>  (26) 


>  <SubcomponentList>  (26) 


>  <AmbiguousFlag>  (26) 
N

>  <InsertionCode>  (26) 


>  <InstanceId>  (26) 
1QB6_623_A_300

>  <ChemCompId>  (26) 
623

>  <PdbId>  (26) 
1QB6

>  <ResidueNumber>  (26) 
300

>  <InChI>  (26) 
InChI=1S/C20H17F2N5O2/c1-10-15(21)19(28-13-6-2-4-11(8-13)17(23)24)27-20(16(10)22)29-14-7-3-5-12(9-14)18(25)26/h2-9H,1H3,(H3,23,24)(H3,25,26)/p+1

>  <InChIKey>  (26) 
ZXIHYCYAQUQHSG-UHFFFAOYSA-O

>  <SMILES>  (26) 
[H]/N=C(/c1cccc(c1)Oc2c(c(c(c([nH+]2)Oc3cccc(c3)/C(=N/[H])/N)F)C)F)\N

>  <MissingHeavyAtoms>  (26) 
0

>  <Model>  (26) 
1

>  <AltIds>  (26) 


>  <pKI>  (26) 
6.06

>  <ChemblID>  (26) 
-

>  <standardized_canonical_smiles>  (26) 
Cc1c(F)c(Oc2cccc(C(=N)N)c2)[nH+]c(Oc2cccc(C(=N)N)c2)c1F

$$$$
1G36_R11_A_990
     RDKit          3D

 32 36  0  0  0  0  0  0  0  0999 V2000
   -4.9860   10.0710   19.7450 N   0  0  0  0  0  0  0  0  0  0  0  0
   -3.0700   10.7130   18.9520 N   0  0  0  0  0  0  0  0  0  0  0  0
   -3.7400    9.7130   19.4910 C   0  0  0  0  0  0  0  0  0  0  0  0
   -3.2070    8.4440   19.7760 C   0  0  0  0  0  0  0  0  0  0  0  0
   -3.9640    7.4750   20.5100 C   0  0  0  0  0  0  0  0  0  0  0  0
   -3.4470    6.2010   20.7980 C   0  0  0  0  0  0  0  0  0  0  0  0
   -2.1490    5.8380   20.3660 C   0  0  0  0  0  0  0  0  0  0  0  0
   -1.3710    6.7640   19.6430 C   0  0  0  0  0  0  0  0  0  0  0  0
   -1.8850    8.0480   19.3490 C   0  0  0  0  0  0  0  0  0  0  0  0
   -1.5970    4.5330   20.6480 N   0  0  0  0  0  0  0  0  0  0  0  0
   -2.1230    3.5250   21.6060 C   0  0  0  0  0  0  0  0  0  0  0  0
   -3.4270    4.3970   23.5810 N   0  0  0  0  0  0  0  0  0  0  0  0
   -2.1870    3.9840   23.0760 C   0  0  0  0  0  0  0  0  0  0  0  0
   -1.0320    3.9980   23.8960 N   0  0  0  0  0  0  0  0  0  0  0  0
   -1.6310    4.4960   25.0630 C   0  0  0  0  0  0  0  0  0  0  0  0
   -3.0500    4.7310   24.8590 C   0  0  0  0  0  0  0  0  0  0  0  0
   -1.0430    4.7800   26.3400 C   0  0  0  0  0  0  0  0  0  0  0  0
   -1.8560    5.2960   27.3730 C   0  0  0  0  0  0  0  0  0  0  0  0
   -3.2480    5.5260   27.1690 C   0  0  0  0  0  0  0  0  0  0  0  0
   -3.8570    5.2470   25.9170 C   0  0  0  0  0  0  0  0  0  0  0  0
    0.3830    3.6160   23.5990 C   0  0  0  0  0  0  0  0  0  0  0  0
   -4.0940    6.0890   28.3030 C   0  0  0  0  0  0  0  0  0  0  0  0
   -3.5880    5.7900   29.6780 N   0  0  0  0  0  0  0  0  0  0  0  0
   -3.7200    4.6490   30.5010 C   0  0  0  0  0  0  0  0  0  0  0  0
   -3.1510    4.5890   31.7810 N   0  0  0  0  0  0  0  0  0  0  0  0
   -2.5770    5.8610   31.7920 C   0  0  0  0  0  0  0  0  0  0  0  0
   -2.8350    6.5760   30.5580 C   0  0  0  0  0  0  0  0  0  0  0  0
   -1.8290    6.4820   32.8450 C   0  0  0  0  0  0  0  0  0  0  0  0
   -1.3370    7.7950   32.6450 C   0  0  0  0  0  0  0  0  0  0  0  0
   -1.5780    8.4960   31.4380 C   0  0  0  0  0  0  0  0  0  0  0  0
   -2.3250    7.9050   30.3870 C   0  0  0  0  0  0  0  0  0  0  0  0
   -4.4810    3.4100   30.0230 C   0  0  0  0  0  0  0  0  0  0  0  0
  3  1  2  0
  3  2  1  0
  4  3  1  0
  5  4  2  0
  9  4  1  0
  6  5  1  0
  7  6  2  0
  8  7  1  0
 10  7  1  0
  9  8  2  0
 11 10  1  0
 13 11  1  0
 13 12  2  0
 16 12  1  0
 14 13  1  0
 15 14  1  0
 21 14  1  0
 16 15  2  0
 17 15  1  0
 20 16  1  0
 18 17  2  0
 19 18  1  0
 20 19  2  0
 22 19  1  0
 23 22  1  0
 24 23  1  0
 27 23  1  0
 25 24  2  0
 32 24  1  0
 26 25  1  0
 27 26  2  0
 28 26  1  0
 31 27  1  0
 29 28  2  0
 30 29  1  0
 31 30  2  0
A    1
N1
A    2
N2
A    3
C1
A    4
C2
A    5
C3
A    6
C4
A    7
C5
A    8
C6
A    9
C7
A   10
N
A   11
C
A   12
N3
A   13
C8
A   14
N9
A   15
C3A
A   16
C7A
A   17
C10
A   18
C11
A   19
C12
A   20
C13
A   21
C14
A   22
C9
A   23
N4
A   24
C15
A   25
N16
A   26
C17
A   27
C18
A   28
C19
A   29
C20
A   30
C21
A   31
C22
A   32
C23
M  END
>  <Id>  (27) 
1G36_R11_A_990

>  <ChainId>  (27) 
A

>  <AsymId>  (27) 
D

>  <SeqNum>  (27) 
990

>  <Name>  (27) 
4-{[1-METHYL-5-(2-METHYL-BENZOIMIDAZOL-1-YLMETHYL)-1H-BENZOIMIDAZOL-2-YLMETHYL]-AMINO}-BENZAMIDINE

>  <SystematicName>  (27) 
4-[[1-methyl-5-[(2-methylbenzimidazol-1-yl)methyl]benzimidazol-2-yl]methylamino]benzenecarboximidamide

>  <Synonyms>  (27) 


>  <Type>  (27) 
NON-POLYMER

>  <Formula>  (27) 
C25 H25 N7

>  <ObservedFormula>  (27) 
C25 N7

>  <MolecularWeight>  (27) 
423.513

>  <ModifiedDate>  (27) 
2011-06-04

>  <Parent>  (27) 


>  <OneLetterCode>  (27) 


>  <SubcomponentList>  (27) 


>  <AmbiguousFlag>  (27) 
N

>  <InsertionCode>  (27) 


>  <InstanceId>  (27) 
1G36_R11_A_990

>  <ChemCompId>  (27) 
R11

>  <PdbId>  (27) 
1G36

>  <ResidueNumber>  (27) 
990

>  <InChI>  (27) 
InChI=1S/C25H25N7/c1-16-29-20-5-3-4-6-23(20)32(16)15-17-7-12-22-21(13-17)30-24(31(22)2)14-28-19-10-8-18(9-11-19)25(26)27/h3-13,28H,14-15H2,1-2H3,(H3,26,27)

>  <InChIKey>  (27) 
IRKPNOLLMNHSOU-UHFFFAOYSA-N

>  <SMILES>  (27) 
[H]/N=C(/c1ccc(cc1)NCc2nc3cc(ccc3n2C)Cn4c(nc5c4cccc5)C)\N

>  <MissingHeavyAtoms>  (27) 
0

>  <Model>  (27) 
1

>  <AltIds>  (27) 


>  <pKI>  (27) 
7.17

>  <ChemblID>  (27) 
-

>  <standardized_canonical_smiles>  (27) 
Cc1nc2ccccc2n1Cc1ccc2c(c1)nc(CNc1ccc(C(=N)N)cc1)n2C

$$$$
1C1R_BAI_A_246
     RDKit          3D

 22 25  0  0  0  0  0  0  0  0999 V2000
   45.3210   19.4680   52.8680 C   0  0  0  0  0  0  0  0  0  0  0  0
   44.6780   19.0610   51.6400 C   0  0  0  0  0  0  0  0  0  0  0  0
   44.2480   20.0000   50.6810 C   0  0  0  0  0  0  0  0  0  0  0  0
   44.4900   21.3220   50.9910 C   0  0  0  0  0  0  0  0  0  0  0  0
   45.0860   21.7150   52.1250 C   0  0  0  0  0  0  0  0  0  0  0  0
   45.5140   20.8510   53.0820 C   0  0  0  0  0  0  0  0  0  0  0  0
   45.7430   18.5670   53.8490 C   0  0  0  0  0  0  0  0  0  0  0  0
   44.6170   23.4360   51.0080 C   0  0  0  0  0  0  0  0  0  0  0  0
   44.4420   24.9350   50.5720 C   0  0  0  0  0  0  0  0  0  0  0  0
   46.5960   18.9460   54.7570 N   0  0  0  0  0  0  0  0  0  0  0  0
   45.2890   17.3480   53.8450 N   0  0  0  0  0  0  0  0  0  0  0  0
   44.2090   22.4040   50.3170 N   0  0  0  0  0  0  0  0  0  0  0  0
   45.1560   23.0190   52.1120 N   0  0  0  0  0  0  0  0  0  0  0  0
   45.0370   25.3510   44.6310 C   0  0  0  0  0  0  0  0  0  0  0  0
   45.7720   26.5360   44.9400 C   0  0  0  0  0  0  0  0  0  0  0  0
   45.9600   26.9660   46.2830 C   0  0  0  0  0  0  0  0  0  0  0  0
   45.3900   26.1690   47.2600 C   0  0  0  0  0  0  0  0  0  0  0  0
   44.6910   25.0430   46.9460 C   0  0  0  0  0  0  0  0  0  0  0  0
   44.4740   24.5750   45.6580 C   0  0  0  0  0  0  0  0  0  0  0  0
   44.7250   25.2740   49.0560 C   0  0  0  0  0  0  0  0  0  0  0  0
   45.3960   26.2880   48.5740 N   0  0  0  0  0  0  0  0  0  0  0  0
   44.3040   24.5340   48.0680 N   0  0  0  0  0  0  0  0  0  0  0  0
  2  1  2  0
  6  1  1  0
  7  1  1  0
  3  2  1  0
  4  3  2  0
  5  4  1  0
 12  4  1  0
  6  5  2  0
 13  5  1  0
 10  7  1  0
 11  7  2  0
  9  8  1  0
 12  8  1  0
 13  8  2  0
 20  9  1  0
 15 14  2  0
 19 14  1  0
 16 15  1  0
 17 16  2  0
 18 17  1  0
 21 17  1  0
 19 18  2  0
 22 18  1  0
 21 20  1  0
 22 20  2  0
A    1
C1
A    2
C2
A    3
C3
A    4
C4
A    5
C5
A    6
C6
A    7
C7
A    8
C8
A    9
C9
A   10
N1
A   11
N2
A   12
N3
A   13
N4
A   14
C1'
A   15
C2'
A   16
C3'
A   17
C4'
A   18
C5'
A   19
C6'
A   20
C8'
A   21
N3'
A   22
N4'
M  END
>  <Id>  (28) 
1C1R_BAI_A_246

>  <ChainId>  (28) 
A

>  <AsymId>  (28) 
F

>  <SeqNum>  (28) 
246

>  <Name>  (28) 
(5-AMIDINO-2-BENZIMIDAZOLYL)(2-BENZIMIDAZOLYL)METHANE

>  <SystematicName>  (28) 
2-(1H-benzimidazol-2-ylmethyl)-1H-benzimidazole-5-carboximidamide

>  <Synonyms>  (28) 
HEMI-BABIM

>  <Type>  (28) 
NON-POLYMER

>  <Formula>  (28) 
C16 H14 N6

>  <ObservedFormula>  (28) 
C16 N6

>  <MolecularWeight>  (28) 
290.323

>  <ModifiedDate>  (28) 
2011-06-04

>  <Parent>  (28) 


>  <OneLetterCode>  (28) 


>  <SubcomponentList>  (28) 


>  <AmbiguousFlag>  (28) 
N

>  <InsertionCode>  (28) 


>  <InstanceId>  (28) 
1C1R_BAI_A_246

>  <ChemCompId>  (28) 
BAI

>  <PdbId>  (28) 
1C1R

>  <ResidueNumber>  (28) 
246

>  <InChI>  (28) 
InChI=1S/C16H14N6/c17-16(18)9-5-6-12-13(7-9)22-15(21-12)8-14-19-10-3-1-2-4-11(10)20-14/h1-7H,8H2,(H3,17,18)(H,19,20)(H,21,22)

>  <InChIKey>  (28) 
KKJYVDXDZURHMA-UHFFFAOYSA-N

>  <SMILES>  (28) 
c1ccc2c(c1)[nH]c(n2)Cc3[nH]c4ccc(cc4n3)C(=N)N

>  <MissingHeavyAtoms>  (28) 
0

>  <Model>  (28) 
1

>  <AltIds>  (28) 


>  <pKI>  (28) 
7.63

>  <ChemblID>  (28) 
-

>  <standardized_canonical_smiles>  (28) 
N=C(N)c1ccc2[nH]c(Cc3nc4ccccc4[nH]3)nc2c1

$$$$
1C1Q_BAI_A_246
     RDKit          3D

 13 14  0  0  0  0  0  0  0  0999 V2000
   45.4420   19.2440   52.9010 C   0  0  0  0  0  0  0  0  0  0  0  0
   45.0190   18.8530   51.5840 C   0  0  0  0  0  0  0  0  0  0  0  0
   44.6410   19.8050   50.6020 C   0  0  0  0  0  0  0  0  0  0  0  0
   44.7040   21.1320   50.9850 C   0  0  0  0  0  0  0  0  0  0  0  0
   45.1000   21.5060   52.2110 C   0  0  0  0  0  0  0  0  0  0  0  0
   45.4740   20.6250   53.1950 C   0  0  0  0  0  0  0  0  0  0  0  0
   45.8220   18.3350   53.8920 C   0  0  0  0  0  0  0  0  0  0  0  0
   44.6970   23.2140   51.1960 C   0  0  0  0  0  0  0  0  0  0  0  0
   44.5520   24.7130   50.8460 C   0  0  0  0  0  0  0  0  0  0  0  0
   46.6760   18.7100   54.8090 N   0  0  0  0  0  0  0  0  0  0  0  0
   45.3310   17.1290   53.8870 N   0  0  0  0  0  0  0  0  0  0  0  0
   44.4550   22.2400   50.3550 N   0  0  0  0  0  0  0  0  0  0  0  0
   45.1080   22.8050   52.3850 N   0  0  0  0  0  0  0  0  0  0  0  0
  2  1  2  0
  6  1  1  0
  7  1  1  0
  3  2  1  0
  4  3  2  0
  5  4  1  0
 12  4  1  0
  6  5  2  0
 13  5  1  0
 10  7  1  0
 11  7  2  0
  9  8  1  0
 12  8  1  0
 13  8  2  0
A    1
C1
A    2
C2
A    3
C3
A    4
C4
A    5
C5
A    6
C6
A    7
C7
A    8
C8
A    9
C9
A   10
N1
A   11
N2
A   12
N3
A   13
N4
M  END
>  <Id>  (29) 
1C1Q_BAI_A_246

>  <ChainId>  (29) 
A

>  <AsymId>  (29) 
E

>  <SeqNum>  (29) 
246

>  <Name>  (29) 
(5-AMIDINO-2-BENZIMIDAZOLYL)(2-BENZIMIDAZOLYL)METHANE

>  <SystematicName>  (29) 
2-(1H-benzimidazol-2-ylmethyl)-1H-benzimidazole-5-carboximidamide

>  <Synonyms>  (29) 
HEMI-BABIM

>  <Type>  (29) 
NON-POLYMER

>  <Formula>  (29) 
C16 H14 N6

>  <ObservedFormula>  (29) 
C9 N4

>  <MolecularWeight>  (29) 
290.323

>  <ModifiedDate>  (29) 
2011-06-04

>  <Parent>  (29) 


>  <OneLetterCode>  (29) 


>  <SubcomponentList>  (29) 


>  <AmbiguousFlag>  (29) 
N

>  <InsertionCode>  (29) 


>  <InstanceId>  (29) 
1C1Q_BAI_A_246

>  <ChemCompId>  (29) 
BAI

>  <PdbId>  (29) 
1C1Q

>  <ResidueNumber>  (29) 
246

>  <InChI>  (29) 
InChI=1S/C16H14N6/c17-16(18)9-5-6-12-13(7-9)22-15(21-12)8-14-19-10-3-1-2-4-11(10)20-14/h1-7H,8H2,(H3,17,18)(H,19,20)(H,21,22)

>  <InChIKey>  (29) 
KKJYVDXDZURHMA-UHFFFAOYSA-N

>  <SMILES>  (29) 
c1ccc2c(c1)[nH]c(n2)Cc3[nH]c4ccc(cc4n3)C(=N)N

>  <MissingHeavyAtoms>  (29) 
9

>  <Model>  (29) 
1

>  <AltIds>  (29) 


>  <pKI>  (29) 
7.63

>  <ChemblID>  (29) 
-

>  <standardized_canonical_smiles>  (29) 
N=C(N)c1ccc2[nH]c(Cc3nc4ccccc4[nH]3)nc2c1

$$$$
1C1P_BAI_A_246
     RDKit          3D

 22 25  0  0  0  0  0  0  0  0999 V2000
   45.5740   19.3740   53.2390 C   0  0  0  0  0  0  0  0  0  0  0  0
   45.1040   19.1540   51.8870 C   0  0  0  0  0  0  0  0  0  0  0  0
   44.7800   20.2210   51.0260 C   0  0  0  0  0  0  0  0  0  0  0  0
   44.9370   21.4850   51.5500 C   0  0  0  0  0  0  0  0  0  0  0  0
   45.3690   21.7260   52.8010 C   0  0  0  0  0  0  0  0  0  0  0  0
   45.7010   20.7220   53.6850 C   0  0  0  0  0  0  0  0  0  0  0  0
   45.8960   18.3190   54.1000 C   0  0  0  0  0  0  0  0  0  0  0  0
   45.0340   23.5530   51.9320 C   0  0  0  0  0  0  0  0  0  0  0  0
   44.9460   25.1010   51.7130 C   0  0  0  0  0  0  0  0  0  0  0  0
   46.6630   18.5560   55.1200 N   0  0  0  0  0  0  0  0  0  0  0  0
   45.4340   17.1190   53.8510 N   0  0  0  0  0  0  0  0  0  0  0  0
   44.7310   22.6490   51.0250 N   0  0  0  0  0  0  0  0  0  0  0  0
   45.4460   23.0170   53.0800 N   0  0  0  0  0  0  0  0  0  0  0  0
   39.3580   26.8730   51.4960 C   0  0  0  0  0  0  0  0  0  0  0  0
   39.5970   26.9880   50.0970 C   0  0  0  0  0  0  0  0  0  0  0  0
   40.8610   26.6780   49.5630 C   0  0  0  0  0  0  0  0  0  0  0  0
   41.8100   26.2690   50.4790 C   0  0  0  0  0  0  0  0  0  0  0  0
   41.5830   26.1620   51.7990 C   0  0  0  0  0  0  0  0  0  0  0  0
   40.3710   26.4520   52.3780 C   0  0  0  0  0  0  0  0  0  0  0  0
   43.5110   25.6050   51.4870 C   0  0  0  0  0  0  0  0  0  0  0  0
   43.0360   25.9190   50.3110 N   0  0  0  0  0  0  0  0  0  0  0  0
   42.6340   25.7460   52.4650 N   0  0  0  0  0  0  0  0  0  0  0  0
  2  1  2  0
  6  1  1  0
  7  1  1  0
  3  2  1  0
  4  3  2  0
  5  4  1  0
 12  4  1  0
  6  5  2  0
 13  5  1  0
 10  7  1  0
 11  7  2  0
  9  8  1  0
 12  8  1  0
 13  8  2  0
 20  9  1  0
 15 14  2  0
 19 14  1  0
 16 15  1  0
 17 16  2  0
 18 17  1  0
 21 17  1  0
 19 18  2  0
 22 18  1  0
 21 20  1  0
 22 20  2  0
A    1
C1
A    2
C2
A    3
C3
A    4
C4
A    5
C5
A    6
C6
A    7
C7
A    8
C8
A    9
C9
A   10
N1
A   11
N2
A   12
N3
A   13
N4
A   14
C1'
A   15
C2'
A   16
C3'
A   17
C4'
A   18
C5'
A   19
C6'
A   20
C8'
A   21
N3'
A   22
N4'
M  END
>  <Id>  (30) 
1C1P_BAI_A_246

>  <ChainId>  (30) 
A

>  <AsymId>  (30) 
F

>  <SeqNum>  (30) 
246

>  <Name>  (30) 
(5-AMIDINO-2-BENZIMIDAZOLYL)(2-BENZIMIDAZOLYL)METHANE

>  <SystematicName>  (30) 
2-(1H-benzimidazol-2-ylmethyl)-1H-benzimidazole-5-carboximidamide

>  <Synonyms>  (30) 
HEMI-BABIM

>  <Type>  (30) 
NON-POLYMER

>  <Formula>  (30) 
C16 H14 N6

>  <ObservedFormula>  (30) 
C16 N6

>  <MolecularWeight>  (30) 
290.323

>  <ModifiedDate>  (30) 
2011-06-04

>  <Parent>  (30) 


>  <OneLetterCode>  (30) 


>  <SubcomponentList>  (30) 


>  <AmbiguousFlag>  (30) 
N

>  <InsertionCode>  (30) 


>  <InstanceId>  (30) 
1C1P_BAI_A_246

>  <ChemCompId>  (30) 
BAI

>  <PdbId>  (30) 
1C1P

>  <ResidueNumber>  (30) 
246

>  <InChI>  (30) 
InChI=1S/C16H14N6/c17-16(18)9-5-6-12-13(7-9)22-15(21-12)8-14-19-10-3-1-2-4-11(10)20-14/h1-7H,8H2,(H3,17,18)(H,19,20)(H,21,22)

>  <InChIKey>  (30) 
KKJYVDXDZURHMA-UHFFFAOYSA-N

>  <SMILES>  (30) 
c1ccc2c(c1)[nH]c(n2)Cc3[nH]c4ccc(cc4n3)C(=N)N

>  <MissingHeavyAtoms>  (30) 
0

>  <Model>  (30) 
1

>  <AltIds>  (30) 


>  <pKI>  (30) 
7.63

>  <ChemblID>  (30) 
-

>  <standardized_canonical_smiles>  (30) 
N=C(N)c1ccc2[nH]c(Cc3nc4ccccc4[nH]3)nc2c1

$$$$
1Y3W_UIP_A_1994
     RDKit          3D

 33 38  0  0  0  0  0  0  0  0999 V2000
   -5.1160    9.5300   19.7200 N   0  0  0  0  0  0  0  0  0  0  0  0
   -3.8020    9.3080   19.6660 C   0  0  0  0  0  0  0  0  0  0  0  0
   -3.0460   10.3260   19.1450 N   0  0  0  0  0  0  0  0  0  0  0  0
   -3.2170    8.0870   20.1190 C   0  0  0  0  0  0  0  0  0  0  0  0
   -3.9830    7.0630   20.6810 C   0  0  0  0  0  0  0  0  0  0  0  0
   -3.3710    5.8710   21.0980 C   0  0  0  0  0  0  0  0  0  0  0  0
   -1.9900    5.6930   21.0140 C   0  0  0  0  0  0  0  0  0  0  0  0
   -1.2150    6.7270   20.4490 C   0  0  0  0  0  0  0  0  0  0  0  0
   -1.8260    7.8970   20.0300 C   0  0  0  0  0  0  0  0  0  0  0  0
   -1.2970    4.4660   21.5280 C   0  0  0  0  0  0  0  0  0  0  0  0
   -2.1500    3.2380   21.4310 N   0  0  0  0  0  0  0  0  0  0  0  0
   -2.3340    2.7210   20.0380 C   0  0  0  0  0  0  0  0  0  0  0  0
   -1.4570    1.4490   19.9320 C   0  0  0  0  0  0  0  0  0  0  0  0
   -0.4980    1.5180   21.0940 C   0  0  0  0  0  0  0  0  0  0  0  0
   -1.3530    2.1930   22.1920 C   0  0  0  0  0  0  0  0  0  0  0  0
   -0.3770    2.9470   23.1420 C   0  0  0  0  0  0  0  0  0  0  0  0
   -0.7130    2.7060   24.6490 C   0  0  0  0  0  0  0  0  0  0  0  0
   -1.6930    3.7270   24.9450 N   0  0  0  0  0  0  0  0  0  0  0  0
   -1.6720    4.7810   24.0690 C   0  0  0  0  0  0  0  0  0  0  0  0
   -2.5550    5.6860   24.0290 O   0  0  0  0  0  0  0  0  0  0  0  0
   -0.6880    4.4480   22.9320 C   0  0  0  0  0  0  0  0  0  0  0  0
   -2.6350    3.8600   26.1000 C   0  0  0  0  0  0  0  0  0  0  0  0
   -2.0470    4.5110   27.3460 C   0  0  0  0  0  0  0  0  0  0  0  0
   -1.1700    3.7830   28.2160 C   0  0  0  0  0  0  0  0  0  0  0  0
   -0.6730    4.3370   29.4160 C   0  0  0  0  0  0  0  0  0  0  0  0
   -1.0830    5.6500   29.7000 C   0  0  0  0  0  0  0  0  0  0  0  0
   -0.7440    6.4240   30.7870 O   0  0  0  0  0  0  0  0  0  0  0  0
   -1.4440    7.6970   30.5940 C   0  0  0  0  0  0  0  0  0  0  0  0
   -2.2090    7.6600   29.3620 O   0  0  0  0  0  0  0  0  0  0  0  0
   -1.9430    6.3810   28.8580 C   0  0  0  0  0  0  0  0  0  0  0  0
   -2.4420    5.8230   27.6640 C   0  0  0  0  0  0  0  0  0  0  0  0
    0.5200    2.7320   25.5850 C   0  0  0  0  0  0  0  0  0  0  0  0
    1.3180    1.4360   25.5760 C   0  0  0  0  0  0  0  0  0  0  0  0
  2  1  2  0
  3  2  1  0
  4  2  1  0
  5  4  2  0
  9  4  1  0
  6  5  1  0
  7  6  2  0
  8  7  1  0
 10  7  1  0
  9  8  2  0
 11 10  1  0
 21 10  1  0
 12 11  1  0
 15 11  1  0
 13 12  1  0
 14 13  1  0
 15 14  1  0
 16 15  1  0
 17 16  1  0
 21 16  1  0
 18 17  1  0
 32 17  1  0
 19 18  1  0
 22 18  1  0
 20 19  2  0
 21 19  1  0
 23 22  1  0
 24 23  2  0
 31 23  1  0
 25 24  1  0
 26 25  2  0
 27 26  1  0
 30 26  1  0
 28 27  1  0
 29 28  1  0
 30 29  1  0
 31 30  2  0
 33 32  1  0
A    1
N1
A    2
C3
A    3
N2
A    4
C4
A    5
C9
A    6
C8
A    7
C7
A    8
C6
A    9
C5
A   10
C10
A   11
N11
A   12
C12
A   13
C13
A   14
C14
A   15
C15
A   16
C16
A   17
C17
A   18
N19
A   19
C20
A   20
O21
A   21
C22
A   22
C23
A   23
C24
A   24
C32
A   25
C31
A   26
C30
A   27
O29
A   28
C28
A   29
O27
A   30
C26
A   31
C25
A   32
C18
A   33
C42
M  END
>  <Id>  (31) 
1Y3W_UIP_A_1994

>  <ChainId>  (31) 
A

>  <AsymId>  (31) 
C

>  <SeqNum>  (31) 
1994

>  <Name>  (31) 
(1R,3AS,4R,8AS,8BR)-4-(2-BENZO[1,3]DIOXOL-5-YLMETHYL-1-ETHYL-3-OXO-DECAHYDRO-PYRROLO[3,4-A]PYRROLIZIN-4-YL)-BENZAMIDINE

>  <SystematicName>  (31) 
4-[(1R,3aS,4R,5S,8aS,8bR)-2-(1,3-benzodioxol-5-ylmethyl)-1-ethyl-3-oxo-1,3a,4,6,7,8,8a,8b-octahydropyrrolo[3,4-a]pyrrolizin-4-yl]benzenecarboximidamide

>  <Synonyms>  (31) 


>  <Type>  (31) 
NON-POLYMER

>  <Formula>  (31) 
C26 H30 N4 O3

>  <ObservedFormula>  (31) 
C26 N4 O3

>  <MolecularWeight>  (31) 
446.541

>  <ModifiedDate>  (31) 
2011-06-04

>  <Parent>  (31) 


>  <OneLetterCode>  (31) 


>  <SubcomponentList>  (31) 


>  <AmbiguousFlag>  (31) 
N

>  <InsertionCode>  (31) 


>  <InstanceId>  (31) 
1Y3W_UIP_A_1994

>  <ChemCompId>  (31) 
UIP

>  <PdbId>  (31) 
1Y3W

>  <ResidueNumber>  (31) 
1994

>  <InChI>  (31) 
InChI=1S/C26H30N4O3/c1-2-18-22-19-4-3-11-29(19)24(16-6-8-17(9-7-16)25(27)28)23(22)26(31)30(18)13-15-5-10-20-21(12-15)33-14-32-20/h5-10,12,18-19,22-24H,2-4,11,13-14H2,1H3,(H3,27,28)/t18-,19+,22+,23+,24+/m1/s1

>  <InChIKey>  (31) 
RCAUWWFTOCHSJH-KEXZDOINSA-N

>  <SMILES>  (31) 
CC[C@@H]1[C@H]2[C@@H]3CCC[N@@]3[C@H]([C@H]2C(=O)N1Cc4ccc5c(c4)OCO5)c6ccc(cc6)C(=N)N

>  <MissingHeavyAtoms>  (31) 
0

>  <Model>  (31) 
1

>  <AltIds>  (31) 


>  <pKI>  (31) 
5.77

>  <ChemblID>  (31) 
-

>  <standardized_canonical_smiles>  (31) 
CC[C@@H]1[C@@H]2[C@H](C(=O)N1Cc1ccc3c(c1)OCO3)[C@H](c1ccc(C(=N)N)cc1)N1CCC[C@@H]21

$$$$
1Y3X_UIB_A_1994
     RDKit          3D

 33 37  0  0  0  0  0  0  0  0999 V2000
   -5.0170    9.5770   19.8370 N   0  0  0  0  0  0  0  0  0  0  0  0
   -3.7270    9.3500   19.6500 C   0  0  0  0  0  0  0  0  0  0  0  0
   -3.0410   10.3560   19.0290 N   0  0  0  0  0  0  0  0  0  0  0  0
   -3.1370    8.1210   20.0830 C   0  0  0  0  0  0  0  0  0  0  0  0
   -1.7680    7.8570   19.8580 C   0  0  0  0  0  0  0  0  0  0  0  0
   -1.2160    6.6560   20.2930 C   0  0  0  0  0  0  0  0  0  0  0  0
   -2.0090    5.6880   20.9520 C   0  0  0  0  0  0  0  0  0  0  0  0
   -1.3370    4.4500   21.4840 C   0  0  0  0  0  0  0  0  0  0  0  0
   -0.7630    4.4420   22.9150 C   0  0  0  0  0  0  0  0  0  0  0  0
   -0.4360    2.9350   23.1290 C   0  0  0  0  0  0  0  0  0  0  0  0
   -1.4120    2.2010   22.1670 C   0  0  0  0  0  0  0  0  0  0  0  0
   -2.1330    1.1340   23.0160 C   0  0  0  0  0  0  0  0  0  0  0  0
   -0.5110    1.5400   21.1020 C   0  0  0  0  0  0  0  0  0  0  0  0
   -2.2270    3.2530   21.4180 N   0  0  0  0  0  0  0  0  0  0  0  0
   -2.5370    2.8520   20.0400 C   0  0  0  0  0  0  0  0  0  0  0  0
   -0.7490    2.7330   24.6450 C   0  0  0  0  0  0  0  0  0  0  0  0
   -1.8100    3.6930   24.9060 N   0  0  0  0  0  0  0  0  0  0  0  0
   -2.7820    3.6560   26.0570 C   0  0  0  0  0  0  0  0  0  0  0  0
   -2.5730    4.7960   27.0540 C   0  0  0  0  0  0  0  0  0  0  0  0
   -3.5640    5.8110   27.2260 C   0  0  0  0  0  0  0  0  0  0  0  0
   -3.4700    6.8050   28.2200 C   0  0  0  0  0  0  0  0  0  0  0  0
   -2.3330    6.7840   29.0380 C   0  0  0  0  0  0  0  0  0  0  0  0
   -1.3350    5.8040   28.9060 C   0  0  0  0  0  0  0  0  0  0  0  0
   -1.4270    4.8030   27.9240 C   0  0  0  0  0  0  0  0  0  0  0  0
   -0.3070    5.9780   29.8440 O   0  0  0  0  0  0  0  0  0  0  0  0
   -0.7300    7.1530   30.5830 C   0  0  0  0  0  0  0  0  0  0  0  0
   -2.0080    7.6340   30.0670 O   0  0  0  0  0  0  0  0  0  0  0  0
   -1.8490    4.7090   23.9840 C   0  0  0  0  0  0  0  0  0  0  0  0
   -2.6300    5.6990   24.0180 O   0  0  0  0  0  0  0  0  0  0  0  0
    0.4760    2.8910   25.5700 C   0  0  0  0  0  0  0  0  0  0  0  0
    1.2450    1.5920   25.6870 C   0  0  0  0  0  0  0  0  0  0  0  0
   -3.3580    5.9540   21.1870 C   0  0  0  0  0  0  0  0  0  0  0  0
   -3.9250    7.1760   20.7470 C   0  0  0  0  0  0  0  0  0  0  0  0
  2  1  1  0
  3  2  2  0
  4  2  1  0
  5  4  2  0
 33  4  1  0
  6  5  1  0
  7  6  2  0
  8  7  1  0
 32  7  1  0
  9  8  1  0
 14  8  1  0
 10  9  1  0
 28  9  1  0
 11 10  1  0
 16 10  1  0
 12 11  1  0
 13 11  1  0
 14 11  1  0
 15 14  1  0
 17 16  1  0
 30 16  1  0
 18 17  1  0
 28 17  1  0
 19 18  1  0
 20 19  2  0
 24 19  1  0
 21 20  1  0
 22 21  2  0
 23 22  1  0
 27 22  1  0
 24 23  2  0
 25 23  1  0
 26 25  1  0
 27 26  1  0
 29 28  2  0
 31 30  1  0
 33 32  2  0
A    1
N1
A    2
C3
A    3
N2
A    4
C4
A    5
C5
A    6
C6
A    7
C7
A    8
C10
A    9
C22
A   10
C16
A   11
C15
A   12
C13
A   13
C14
A   14
N11
A   15
C12
A   16
C17
A   17
N19
A   18
C23
A   19
C24
A   20
C32
A   21
C31
A   22
C30
A   23
C26
A   24
C25
A   25
O27
A   26
C28
A   27
O29
A   28
C20
A   29
O21
A   30
C18
A   31
C41
A   32
C8
A   33
C9
M  END
>  <Id>  (32) 
1Y3X_UIB_A_1994

>  <ChainId>  (32) 
A

>  <AsymId>  (32) 
C

>  <SeqNum>  (32) 
1994

>  <Name>  (32) 
(1R,3AS,4R,8AS,8BR)-4-{5-(PHENYL[1,3]DIOXOL-5-YLMETHYL)-4-ETHYL-2,3,3-TRIMETHYL-6-OXO-OCTAHYDRO-PYRROLO[3,4-C]PYRROL-1-YL}-BENZAMIDINE

>  <SystematicName>  (32) 
4-[(1R,2R,3aS,4R,6aS)-5-(1,3-benzodioxol-5-ylmethyl)-4-ethyl-2,3,3-trimethyl-6-oxo-1,3a,4,6a-tetrahydropyrrolo[4,3-c]pyrrol-1-yl]benzenecarboximidamide

>  <Synonyms>  (32) 


>  <Type>  (32) 
NON-POLYMER

>  <Formula>  (32) 
C26 H32 N4 O3

>  <ObservedFormula>  (32) 
C26 N4 O3

>  <MolecularWeight>  (32) 
448.557

>  <ModifiedDate>  (32) 
2011-06-04

>  <Parent>  (32) 


>  <OneLetterCode>  (32) 


>  <SubcomponentList>  (32) 


>  <AmbiguousFlag>  (32) 
N

>  <InsertionCode>  (32) 


>  <InstanceId>  (32) 
1Y3X_UIB_A_1994

>  <ChemCompId>  (32) 
UIB

>  <PdbId>  (32) 
1Y3X

>  <ResidueNumber>  (32) 
1994

>  <InChI>  (32) 
InChI=1S/C26H32N4O3/c1-5-18-22-21(25(31)30(18)13-15-6-11-19-20(12-15)33-14-32-19)23(29(4)26(22,2)3)16-7-9-17(10-8-16)24(27)28/h6-12,18,21-23H,5,13-14H2,1-4H3,(H3,27,28)/t18-,21+,22-,23+/m1/s1

>  <InChIKey>  (32) 
HQVPEQYGMUJQHM-MSYGRNIXSA-N

>  <SMILES>  (32) 
CC[C@@H]1[C@@H]2[C@@H]([C@@H]([N@](C2(C)C)C)c3ccc(cc3)C(=N)N)C(=O)N1Cc4ccc5c(c4)OCO5

>  <MissingHeavyAtoms>  (32) 
0

>  <Model>  (32) 
1

>  <AltIds>  (32) 


>  <pKI>  (32) 
5.14

>  <ChemblID>  (32) 
-

>  <standardized_canonical_smiles>  (32) 
CC[C@@H]1[C@@H]2[C@H](C(=O)N1Cc1ccc3c(c1)OCO3)[C@H](c1ccc(C(=N)N)cc1)N(C)C2(C)C

$$$$
1O2J_656_A_246
     RDKit          3D

 24 26  0  0  0  0  0  0  0  0999 V2000
   44.4610   -3.0870   26.2460 C   0  0  0  0  0  0  0  0  0  0  0  0
   44.8400   -1.7260   26.2880 C   0  0  0  0  0  0  0  0  0  0  0  0
   44.8030   -0.9970   27.4770 C   0  0  0  0  0  0  0  0  0  0  0  0
   44.3900   -1.6430   28.6030 C   0  0  0  0  0  0  0  0  0  0  0  0
   44.0230   -2.9290   28.6190 C   0  0  0  0  0  0  0  0  0  0  0  0
   44.0470   -3.6950   27.4480 C   0  0  0  0  0  0  0  0  0  0  0  0
   44.5060   -3.7930   25.0180 C   0  0  0  0  0  0  0  0  0  0  0  0
   44.2940   -5.0920   24.9750 N   0  0  0  0  0  0  0  0  0  0  0  0
   44.7510   -3.1160   23.9130 N   0  0  0  0  0  0  0  0  0  0  0  0
   44.2630   -1.2310   29.8090 N   0  0  0  0  0  0  0  0  0  0  0  0
   43.6650   -3.3360   29.8220 N   0  0  0  0  0  0  0  0  0  0  0  0
   43.8390   -2.2260   30.5160 C   0  0  0  0  0  0  0  0  0  0  0  0
   43.6170   -2.1050   31.8900 C   0  0  0  0  0  0  0  0  0  0  0  0
   43.2830   -3.2260   32.6440 C   0  0  0  0  0  0  0  0  0  0  0  0
   43.0740   -3.1190   34.0150 C   0  0  0  0  0  0  0  0  0  0  0  0
   43.1990   -1.8980   34.6380 C   0  0  0  0  0  0  0  0  0  0  0  0
   43.5340   -0.7690   33.9010 C   0  0  0  0  0  0  0  0  0  0  0  0
   43.7390   -0.8670   32.5360 C   0  0  0  0  0  0  0  0  0  0  0  0
   44.0500    0.2870   31.8360 O   0  0  0  0  0  0  0  0  0  0  0  0
   43.6980    0.4700   34.4900 O   0  0  0  0  0  0  0  0  0  0  0  0
   43.5500    0.7790   35.8620 C   0  0  0  0  0  0  0  0  0  0  0  0
   44.0610    2.2330   36.0550 C   0  0  0  0  0  0  0  0  0  0  0  0
   42.8710    3.0850   36.4270 C   0  0  0  0  0  0  0  0  0  0  0  0
   45.0200    2.2750   37.2680 C   0  0  0  0  0  0  0  0  0  0  0  0
  2  1  2  0
  6  1  1  0
  7  1  1  0
  3  2  1  0
  4  3  2  0
  5  4  1  0
 10  4  1  0
  6  5  2  0
 11  5  1  0
  8  7  1  0
  9  7  2  0
 12 10  1  0
 12 11  2  0
 13 12  1  0
 14 13  2  0
 18 13  1  0
 15 14  1  0
 16 15  2  0
 17 16  1  0
 18 17  2  0
 20 17  1  0
 19 18  1  0
 21 20  1  0
 22 21  1  0
 23 22  1  0
 24 22  1  0
M  CHG  2   9   1  19  -1
A    1
C1
A    2
C2
A    3
C3
A    4
C4
A    5
C5
A    6
C6
A    7
C7
A    8
N1
A    9
N2
A   10
N3
A   11
N4
A   12
C8
A   13
C1'
A   14
C2'
A   15
C3'
A   16
C4'
A   17
C5'
A   18
C6'
A   19
O6'
A   20
O5'
A   21
C10
A   22
C20
A   23
C30
A   24
C40
M  END
>  <Id>  (33) 
1O2J_656_A_246

>  <ChainId>  (33) 
A

>  <AsymId>  (33) 
E

>  <SeqNum>  (33) 
246

>  <Name>  (33) 
2-{5-[AMINO(IMINIO)METHYL]-1H-BENZIMIDAZOL-2-YL}-6-ISOBUTOXYBENZENOLATE

>  <SystematicName>  (33) 
2-[5-(amino-azaniumylidene-methyl)-1H-benzimidazol-2-yl]-6-(2-methylpropoxy)phenolate

>  <Synonyms>  (33) 
CRA_10656

>  <Type>  (33) 
NON-POLYMER

>  <Formula>  (33) 
C18 H20 N4 O2

>  <ObservedFormula>  (33) 
C18 N4 O2

>  <MolecularWeight>  (33) 
324.377

>  <ModifiedDate>  (33) 
2011-06-04

>  <Parent>  (33) 


>  <OneLetterCode>  (33) 


>  <SubcomponentList>  (33) 


>  <AmbiguousFlag>  (33) 
N

>  <InsertionCode>  (33) 


>  <InstanceId>  (33) 
1O2J_656_A_246

>  <ChemCompId>  (33) 
656

>  <PdbId>  (33) 
1O2J

>  <ResidueNumber>  (33) 
246

>  <InChI>  (33) 
InChI=1S/C18H20N4O2/c1-10(2)9-24-15-5-3-4-12(16(15)23)18-21-13-7-6-11(17(19)20)8-14(13)22-18/h3-8,10,23H,9H2,1-2H3,(H3,19,20)(H,21,22)

>  <InChIKey>  (33) 
HSHVHNIOQTZSOQ-UHFFFAOYSA-N

>  <SMILES>  (33) 
CC(C)COc1cccc(c1[O-])c2[nH]c3ccc(cc3n2)C(=[NH2+])N

>  <MissingHeavyAtoms>  (33) 
0

>  <Model>  (33) 
1

>  <AltIds>  (33) 


>  <pKI>  (33) 
6.92

>  <ChemblID>  (33) 
-

>  <standardized_canonical_smiles>  (33) 
CC(C)COc1cccc(-c2nc3cc(C(N)=[NH2+])ccc3[nH]2)c1[O-]

$$$$
1O2K_656_A_246
     RDKit          3D

 24 26  0  0  0  0  0  0  0  0999 V2000
   44.5180   -3.0730   26.1580 C   0  0  0  0  0  0  0  0  0  0  0  0
   44.8650   -1.7100   26.2080 C   0  0  0  0  0  0  0  0  0  0  0  0
   44.8360   -0.9990   27.4010 C   0  0  0  0  0  0  0  0  0  0  0  0
   44.4600   -1.6630   28.5280 C   0  0  0  0  0  0  0  0  0  0  0  0
   44.1210   -2.9600   28.5480 C   0  0  0  0  0  0  0  0  0  0  0  0
   44.1370   -3.7100   27.3730 C   0  0  0  0  0  0  0  0  0  0  0  0
   44.5550   -3.7540   24.9100 C   0  0  0  0  0  0  0  0  0  0  0  0
   44.3240   -5.0440   24.8420 N   0  0  0  0  0  0  0  0  0  0  0  0
   44.8120   -3.0870   23.8100 N   0  0  0  0  0  0  0  0  0  0  0  0
   44.3480   -1.2540   29.7330 N   0  0  0  0  0  0  0  0  0  0  0  0
   43.7970   -3.3830   29.7540 N   0  0  0  0  0  0  0  0  0  0  0  0
   43.9590   -2.2640   30.4520 C   0  0  0  0  0  0  0  0  0  0  0  0
   43.7580   -2.1470   31.8270 C   0  0  0  0  0  0  0  0  0  0  0  0
   43.3570   -3.2480   32.5640 C   0  0  0  0  0  0  0  0  0  0  0  0
   43.1810   -3.1470   33.9330 C   0  0  0  0  0  0  0  0  0  0  0  0
   43.4040   -1.9520   34.5810 C   0  0  0  0  0  0  0  0  0  0  0  0
   43.8050   -0.8440   33.8640 C   0  0  0  0  0  0  0  0  0  0  0  0
   43.9770   -0.9380   32.4870 C   0  0  0  0  0  0  0  0  0  0  0  0
   44.3500    0.1970   31.7890 O   0  0  0  0  0  0  0  0  0  0  0  0
   44.0840    0.3560   34.5000 O   0  0  0  0  0  0  0  0  0  0  0  0
   43.7120    0.7010   35.8270 C   0  0  0  0  0  0  0  0  0  0  0  0
   44.1390    2.1850   36.1070 C   0  0  0  0  0  0  0  0  0  0  0  0
   42.8870    2.9810   36.5420 C   0  0  0  0  0  0  0  0  0  0  0  0
   45.0470    2.2250   37.3350 C   0  0  0  0  0  0  0  0  0  0  0  0
  2  1  2  0
  6  1  1  0
  7  1  1  0
  3  2  1  0
  4  3  2  0
  5  4  1  0
 10  4  1  0
  6  5  2  0
 11  5  1  0
  8  7  1  0
  9  7  2  0
 12 10  1  0
 12 11  2  0
 13 12  1  0
 14 13  2  0
 18 13  1  0
 15 14  1  0
 16 15  2  0
 17 16  1  0
 18 17  2  0
 20 17  1  0
 19 18  1  0
 21 20  1  0
 22 21  1  0
 23 22  1  0
 24 22  1  0
M  CHG  2   9   1  19  -1
A    1
C1
A    2
C2
A    3
C3
A    4
C4
A    5
C5
A    6
C6
A    7
C7
A    8
N1
A    9
N2
A   10
N3
A   11
N4
A   12
C8
A   13
C1'
A   14
C2'
A   15
C3'
A   16
C4'
A   17
C5'
A   18
C6'
A   19
O6'
A   20
O5'
A   21
C10
A   22
C20
A   23
C30
A   24
C40
M  END
>  <Id>  (34) 
1O2K_656_A_246

>  <ChainId>  (34) 
A

>  <AsymId>  (34) 
E

>  <SeqNum>  (34) 
246

>  <Name>  (34) 
2-{5-[AMINO(IMINIO)METHYL]-1H-BENZIMIDAZOL-2-YL}-6-ISOBUTOXYBENZENOLATE

>  <SystematicName>  (34) 
2-[5-(amino-azaniumylidene-methyl)-1H-benzimidazol-2-yl]-6-(2-methylpropoxy)phenolate

>  <Synonyms>  (34) 
CRA_10656

>  <Type>  (34) 
NON-POLYMER

>  <Formula>  (34) 
C18 H20 N4 O2

>  <ObservedFormula>  (34) 
C18 N4 O2

>  <MolecularWeight>  (34) 
324.377

>  <ModifiedDate>  (34) 
2011-06-04

>  <Parent>  (34) 


>  <OneLetterCode>  (34) 


>  <SubcomponentList>  (34) 


>  <AmbiguousFlag>  (34) 
N

>  <InsertionCode>  (34) 


>  <InstanceId>  (34) 
1O2K_656_A_246

>  <ChemCompId>  (34) 
656

>  <PdbId>  (34) 
1O2K

>  <ResidueNumber>  (34) 
246

>  <InChI>  (34) 
InChI=1S/C18H20N4O2/c1-10(2)9-24-15-5-3-4-12(16(15)23)18-21-13-7-6-11(17(19)20)8-14(13)22-18/h3-8,10,23H,9H2,1-2H3,(H3,19,20)(H,21,22)

>  <InChIKey>  (34) 
HSHVHNIOQTZSOQ-UHFFFAOYSA-N

>  <SMILES>  (34) 
CC(C)COc1cccc(c1[O-])c2[nH]c3ccc(cc3n2)C(=[NH2+])N

>  <MissingHeavyAtoms>  (34) 
0

>  <Model>  (34) 
1

>  <AltIds>  (34) 


>  <pKI>  (34) 
6.92

>  <ChemblID>  (34) 
-

>  <standardized_canonical_smiles>  (34) 
CC(C)COc1cccc(-c2nc3cc(C(N)=[NH2+])ccc3[nH]2)c1[O-]

$$$$
1O2P_972_A_246
     RDKit          3D

 25 27  0  0  0  0  0  0  0  0999 V2000
   43.9720   -2.9830   25.7790 C   0  0  0  0  0  0  0  0  0  0  0  0
   43.8090   -1.5640   25.6740 C   0  0  0  0  0  0  0  0  0  0  0  0
   43.7880   -0.6990   24.1030 Cl  0  0  0  0  0  0  0  0  0  0  0  0
   43.6090   -0.8180   26.8510 C   0  0  0  0  0  0  0  0  0  0  0  0
   43.5700   -1.4800   28.0670 C   0  0  0  0  0  0  0  0  0  0  0  0
   43.7160   -2.8090   28.1770 C   0  0  0  0  0  0  0  0  0  0  0  0
   43.9210   -3.5970   27.0460 C   0  0  0  0  0  0  0  0  0  0  0  0
   44.1940   -3.7910   24.6490 C   0  0  0  0  0  0  0  0  0  0  0  0
   43.7870   -5.0460   24.6360 N   0  0  0  0  0  0  0  0  0  0  0  0
   44.8350   -3.2670   23.6250 N   0  0  0  0  0  0  0  0  0  0  0  0
   43.4090   -1.0610   29.2760 N   0  0  0  0  0  0  0  0  0  0  0  0
   43.6480   -3.2330   29.4210 N   0  0  0  0  0  0  0  0  0  0  0  0
   43.4560   -2.0950   30.0680 C   0  0  0  0  0  0  0  0  0  0  0  0
   43.2590   -1.9810   31.4600 C   0  0  0  0  0  0  0  0  0  0  0  0
   43.1470   -3.1270   32.2600 C   0  0  0  0  0  0  0  0  0  0  0  0
   42.9480   -3.0230   33.6360 C   0  0  0  0  0  0  0  0  0  0  0  0
   42.8570   -1.7860   34.2280 C   0  0  0  0  0  0  0  0  0  0  0  0
   42.9620   -0.6110   33.4590 C   0  0  0  0  0  0  0  0  0  0  0  0
   43.1610   -0.7020   32.0710 C   0  0  0  0  0  0  0  0  0  0  0  0
   43.2610    0.4630   31.3070 O   0  0  0  0  0  0  0  0  0  0  0  0
   42.8720    0.6490   34.0470 O   0  0  0  0  0  0  0  0  0  0  0  0
   42.8820    0.8410   35.4740 C   0  0  0  0  0  0  0  0  0  0  0  0
   43.1960    2.3330   35.8900 C   0  0  0  0  0  0  0  0  0  0  0  0
   44.2420    2.3670   37.0430 C   0  0  0  0  0  0  0  0  0  0  0  0
   43.7830    3.1280   34.7500 C   0  0  0  0  0  0  0  0  0  0  0  0
  2  1  2  0
  7  1  1  0
  8  1  1  0
  3  2  1  0
  4  2  1  0
  5  4  2  0
  6  5  1  0
 11  5  1  0
  7  6  2  0
 12  6  1  0
  9  8  1  0
 10  8  2  0
 13 11  1  0
 13 12  2  0
 14 13  1  0
 15 14  2  0
 19 14  1  0
 16 15  1  0
 17 16  2  0
 18 17  1  0
 19 18  2  0
 21 18  1  0
 20 19  1  0
 22 21  1  0
 23 22  1  0
 24 23  1  0
 25 23  1  0
M  CHG  2  10   1  20  -1
A    1
C1
A    2
C2
A    3
CL2
A    4
C3
A    5
C4
A    6
C5
A    7
C6
A    8
C7
A    9
N1
A   10
N2
A   11
N3
A   12
N4
A   13
C8
A   14
C1'
A   15
C2'
A   16
C3'
A   17
C4'
A   18
C5'
A   19
C6'
A   20
O6'
A   21
O5'
A   22
C10
A   23
C20
A   24
C30
A   25
C40
M  END
>  <Id>  (35) 
1O2P_972_A_246

>  <ChainId>  (35) 
A

>  <AsymId>  (35) 
E

>  <SeqNum>  (35) 
246

>  <Name>  (35) 
2-{5-[AMINO(IMINIO)METHYL]-6-CHLORO-1H-BENZIMIDAZOL-2-YL}-6-ISOBUTOXYBENZENOLATE

>  <SystematicName>  (35) 
2-[5-(amino-azaniumylidene-methyl)-6-chloro-1H-benzimidazol-2-yl]-6-(2-methylpropoxy)phenolate

>  <Synonyms>  (35) 
CRA_10972

>  <Type>  (35) 
NON-POLYMER

>  <Formula>  (35) 
C18 H19 Cl N4 O2

>  <ObservedFormula>  (35) 
C18 Cl N4 O2

>  <MolecularWeight>  (35) 
358.822

>  <ModifiedDate>  (35) 
2011-06-04

>  <Parent>  (35) 


>  <OneLetterCode>  (35) 


>  <SubcomponentList>  (35) 


>  <AmbiguousFlag>  (35) 
N

>  <InsertionCode>  (35) 


>  <InstanceId>  (35) 
1O2P_972_A_246

>  <ChemCompId>  (35) 
972

>  <PdbId>  (35) 
1O2P

>  <ResidueNumber>  (35) 
246

>  <InChI>  (35) 
InChI=1S/C18H19ClN4O2/c1-9(2)8-25-15-5-3-4-10(16(15)24)18-22-13-6-11(17(20)21)12(19)7-14(13)23-18/h3-7,9,24H,8H2,1-2H3,(H3,20,21)(H,22,23)

>  <InChIKey>  (35) 
RTSLVPMQUZXPBZ-UHFFFAOYSA-N

>  <SMILES>  (35) 
CC(C)COc1cccc(c1[O-])c2[nH]c3cc(c(cc3n2)C(=[NH2+])N)Cl

>  <MissingHeavyAtoms>  (35) 
0

>  <Model>  (35) 
1

>  <AltIds>  (35) 


>  <pKI>  (35) 
4.85

>  <ChemblID>  (35) 
-

>  <standardized_canonical_smiles>  (35) 
CC(C)COc1cccc(-c2nc3cc(C(N)=[NH2+])c(Cl)cc3[nH]2)c1[O-]

$$$$
1O2O_950_A_246
     RDKit          3D

 25 27  0  0  0  0  0  0  0  0999 V2000
   44.1880   -3.1020   25.5850 C   0  0  0  0  0  0  0  0  0  0  0  0
   44.2010   -1.6810   25.5630 C   0  0  0  0  0  0  0  0  0  0  0  0
   44.3260   -0.9350   24.3750 F   0  0  0  0  0  0  0  0  0  0  0  0
   44.0590   -0.9570   26.7430 C   0  0  0  0  0  0  0  0  0  0  0  0
   43.9020   -1.6370   27.9170 C   0  0  0  0  0  0  0  0  0  0  0  0
   43.8810   -2.9730   27.9820 C   0  0  0  0  0  0  0  0  0  0  0  0
   44.0200   -3.7470   26.8380 C   0  0  0  0  0  0  0  0  0  0  0  0
   44.3400   -3.8520   24.3870 C   0  0  0  0  0  0  0  0  0  0  0  0
   43.9510   -5.1060   24.2820 N   0  0  0  0  0  0  0  0  0  0  0  0
   44.9060   -3.2740   23.3690 N   0  0  0  0  0  0  0  0  0  0  0  0
   43.7590   -1.2260   29.1230 N   0  0  0  0  0  0  0  0  0  0  0  0
   43.7230   -3.4170   29.2050 N   0  0  0  0  0  0  0  0  0  0  0  0
   43.6540   -2.2770   29.8770 C   0  0  0  0  0  0  0  0  0  0  0  0
   43.4530   -2.1950   31.2690 C   0  0  0  0  0  0  0  0  0  0  0  0
   43.2800   -3.3680   32.0060 C   0  0  0  0  0  0  0  0  0  0  0  0
   43.0790   -3.3070   33.3850 C   0  0  0  0  0  0  0  0  0  0  0  0
   43.0500   -2.0990   34.0420 C   0  0  0  0  0  0  0  0  0  0  0  0
   43.2200   -0.9150   33.3430 C   0  0  0  0  0  0  0  0  0  0  0  0
   43.4180   -0.9570   31.9570 C   0  0  0  0  0  0  0  0  0  0  0  0
   43.5460    0.2410   31.2890 O   0  0  0  0  0  0  0  0  0  0  0  0
   43.2380    0.2990   34.0160 O   0  0  0  0  0  0  0  0  0  0  0  0
   43.3240    0.4700   35.4480 C   0  0  0  0  0  0  0  0  0  0  0  0
   43.7530    1.9590   35.8950 C   0  0  0  0  0  0  0  0  0  0  0  0
   44.7920    1.8840   37.0500 C   0  0  0  0  0  0  0  0  0  0  0  0
   44.3990    2.7440   34.7730 C   0  0  0  0  0  0  0  0  0  0  0  0
  2  1  2  0
  7  1  1  0
  8  1  1  0
  3  2  1  0
  4  2  1  0
  5  4  2  0
  6  5  1  0
 11  5  1  0
  7  6  2  0
 12  6  1  0
  9  8  1  0
 10  8  2  0
 13 11  1  0
 13 12  2  0
 14 13  1  0
 15 14  2  0
 19 14  1  0
 16 15  1  0
 17 16  2  0
 18 17  1  0
 19 18  2  0
 21 18  1  0
 20 19  1  0
 22 21  1  0
 23 22  1  0
 24 23  1  0
 25 23  1  0
M  CHG  2  10   1  20  -1
A    1
C1
A    2
C2
A    3
F2
A    4
C3
A    5
C4
A    6
C5
A    7
C6
A    8
C7
A    9
N1
A   10
N2
A   11
N3
A   12
N4
A   13
C8
A   14
C1'
A   15
C2'
A   16
C3'
A   17
C4'
A   18
C5'
A   19
C6'
A   20
O6'
A   21
O5'
A   22
C10
A   23
C20
A   24
C30
A   25
C40
M  END
>  <Id>  (36) 
1O2O_950_A_246

>  <ChainId>  (36) 
A

>  <AsymId>  (36) 
D

>  <SeqNum>  (36) 
246

>  <Name>  (36) 
2-{5-[AMINO(IMINIO)METHYL]-6-FLUORO-1H-BENZIMIDAZOL-2-YL}-6-ISOBUTOXYBENZENOLATE

>  <SystematicName>  (36) 
2-[5-(amino-azaniumylidene-methyl)-6-fluoro-1H-benzimidazol-2-yl]-6-(2-methylpropoxy)phenolate

>  <Synonyms>  (36) 
CRA_10950

>  <Type>  (36) 
NON-POLYMER

>  <Formula>  (36) 
C18 H19 F N4 O2

>  <ObservedFormula>  (36) 
C18 F N4 O2

>  <MolecularWeight>  (36) 
342.367

>  <ModifiedDate>  (36) 
2011-06-04

>  <Parent>  (36) 


>  <OneLetterCode>  (36) 


>  <SubcomponentList>  (36) 


>  <AmbiguousFlag>  (36) 
N

>  <InsertionCode>  (36) 


>  <InstanceId>  (36) 
1O2O_950_A_246

>  <ChemCompId>  (36) 
950

>  <PdbId>  (36) 
1O2O

>  <ResidueNumber>  (36) 
246

>  <InChI>  (36) 
InChI=1S/C18H19FN4O2/c1-9(2)8-25-15-5-3-4-10(16(15)24)18-22-13-6-11(17(20)21)12(19)7-14(13)23-18/h3-7,9,24H,8H2,1-2H3,(H3,20,21)(H,22,23)

>  <InChIKey>  (36) 
NSUDDASMRZSVON-UHFFFAOYSA-N

>  <SMILES>  (36) 
CC(C)COc1cccc(c1[O-])c2[nH]c3cc(c(cc3n2)C(=[NH2+])N)F

>  <MissingHeavyAtoms>  (36) 
0

>  <Model>  (36) 
1

>  <AltIds>  (36) 


>  <pKI>  (36) 
6.36

>  <ChemblID>  (36) 
-

>  <standardized_canonical_smiles>  (36) 
CC(C)COc1cccc(-c2nc3cc(C(N)=[NH2+])c(F)cc3[nH]2)c1[O-]

$$$$
1G3C_109_A_602
     RDKit          3D

 17 17  0  0  0  0  0  0  0  0999 V2000
   34.8940   -2.7880   28.5650 C   0  0  0  0  0  0  0  0  0  0  0  0
   36.2070   -2.3470   28.6530 C   0  0  0  0  0  0  0  0  0  0  0  0
   37.1900   -3.1280   29.2610 C   0  0  0  0  0  0  0  0  0  0  0  0
   36.8510   -4.3780   29.7910 C   0  0  0  0  0  0  0  0  0  0  0  0
   35.5310   -4.8090   29.6950 C   0  0  0  0  0  0  0  0  0  0  0  0
   34.5640   -4.0260   29.0900 C   0  0  0  0  0  0  0  0  0  0  0  0
   37.8270   -5.2400   30.4340 C   0  0  0  0  0  0  0  0  0  0  0  0
   33.8820   -1.9650   27.9300 C   0  0  0  0  0  0  0  0  0  0  0  0
   38.4280   -2.5890   29.2850 O   0  0  0  0  0  0  0  0  0  0  0  0
   32.8530   -1.5150   28.6360 N   0  0  0  0  0  0  0  0  0  0  0  0
   33.9830   -1.6580   26.6440 N   0  0  0  0  0  0  0  0  0  0  0  0
   39.0870   -4.9460   30.5840 N   0  0  0  0  0  0  0  0  0  0  0  0
   39.9470   -5.9190   31.2490 C   0  0  0  0  0  0  0  0  0  0  0  0
   40.4710   -6.9300   30.2320 C   0  0  0  0  0  0  0  0  0  0  0  0
   41.1130   -5.2160   31.9390 C   0  0  0  0  0  0  0  0  0  0  0  0
   41.5860   -5.7140   32.9690 O   0  0  0  0  0  0  0  0  0  0  0  0
   41.5320   -4.1300   31.3860 O   0  0  0  0  0  0  0  0  0  0  0  0
  2  1  2  0
  6  1  1  0
  8  1  1  0
  3  2  1  0
  4  3  2  0
  9  3  1  0
  5  4  1  0
  7  4  1  0
  6  5  2  0
 12  7  1  0
 10  8  1  0
 11  8  2  0
 13 12  1  0
 14 13  1  0
 15 13  1  0
 16 15  2  0
 17 15  1  0
A    1
C1
A    2
C2
A    3
C3
A    4
C4
A    5
C5
A    6
C6
A    7
C7
A    8
C8
A    9
O1
A   10
N1
A   11
N2
A   12
N
A   13
CA
A   14
CB
A   15
C
A   16
O
A   17
OXT
M  END
>  <Id>  (37) 
1G3C_109_A_602

>  <ChainId>  (37) 
A

>  <AsymId>  (37) 
F

>  <SeqNum>  (37) 
602

>  <Name>  (37) 
2-(4-CARBAMIMIDOYL-2-HYDROXY-BENZYLAMINO)-PROPIONIC ACID

>  <SystematicName>  (37) 
(2S)-2-[(4-carbamimidoyl-2-hydroxy-phenyl)methylamino]propanoic acid

>  <Synonyms>  (37) 


>  <Type>  (37) 
NON-POLYMER

>  <Formula>  (37) 
C11 H15 N3 O3

>  <ObservedFormula>  (37) 
C11 N3 O3

>  <MolecularWeight>  (37) 
237.255

>  <ModifiedDate>  (37) 
2011-06-04

>  <Parent>  (37) 


>  <OneLetterCode>  (37) 


>  <SubcomponentList>  (37) 


>  <AmbiguousFlag>  (37) 
N

>  <InsertionCode>  (37) 


>  <InstanceId>  (37) 
1G3C_109_A_602

>  <ChemCompId>  (37) 
109

>  <PdbId>  (37) 
1G3C

>  <ResidueNumber>  (37) 
602

>  <InChI>  (37) 
InChI=1S/C11H15N3O3/c1-6(11(16)17)14-5-8-3-2-7(10(12)13)4-9(8)15/h2-4,6,14-15H,5H2,1H3,(H3,12,13)(H,16,17)/t6-/m0/s1

>  <InChIKey>  (37) 
DQRWCBYLVLYBIF-LURJTMIESA-N

>  <SMILES>  (37) 
C[C@@H](C(=O)O)NCc1ccc(cc1O)C(=N)N

>  <MissingHeavyAtoms>  (37) 
0

>  <Model>  (37) 
1

>  <AltIds>  (37) 


>  <pKI>  (37) 
5.52

>  <ChemblID>  (37) 
-

>  <standardized_canonical_smiles>  (37) 
C[C@H](NCc1ccc(C(=N)N)cc1O)C(=O)O

$$$$
1G3E_109_A_601
     RDKit          3D

 17 17  0  0  0  0  0  0  0  0999 V2000
   43.9090   -3.0280   26.3020 C   0  0  0  0  0  0  0  0  0  0  0  0
   43.0610   -3.6520   27.2020 C   0  0  0  0  0  0  0  0  0  0  0  0
   42.6050   -2.9890   28.3410 C   0  0  0  0  0  0  0  0  0  0  0  0
   43.0120   -1.6730   28.5850 C   0  0  0  0  0  0  0  0  0  0  0  0
   43.8640   -1.0600   27.6730 C   0  0  0  0  0  0  0  0  0  0  0  0
   44.3080   -1.7270   26.5500 C   0  0  0  0  0  0  0  0  0  0  0  0
   42.5750   -0.9240   29.7480 C   0  0  0  0  0  0  0  0  0  0  0  0
   44.2750   -3.6840   25.0640 C   0  0  0  0  0  0  0  0  0  0  0  0
   41.7830   -3.7040   29.1340 O   0  0  0  0  0  0  0  0  0  0  0  0
   44.6660   -2.9650   24.0210 N   0  0  0  0  0  0  0  0  0  0  0  0
   44.2170   -5.0050   24.9720 N   0  0  0  0  0  0  0  0  0  0  0  0
   41.7780   -1.3900   30.6640 N   0  0  0  0  0  0  0  0  0  0  0  0
   41.4160   -0.5250   31.7830 C   0  0  0  0  0  0  0  0  0  0  0  0
   40.0620    0.1260   31.5190 C   0  0  0  0  0  0  0  0  0  0  0  0
   41.3650   -1.3380   33.0730 C   0  0  0  0  0  0  0  0  0  0  0  0
   42.1840   -1.0980   33.9710 O   0  0  0  0  0  0  0  0  0  0  0  0
   40.4490   -2.2430   33.1320 O   0  0  0  0  0  0  0  0  0  0  0  0
  2  1  2  0
  6  1  1  0
  8  1  1  0
  3  2  1  0
  4  3  2  0
  9  3  1  0
  5  4  1  0
  7  4  1  0
  6  5  2  0
 12  7  1  0
 10  8  1  0
 11  8  2  0
 13 12  1  0
 14 13  1  0
 15 13  1  0
 16 15  2  0
 17 15  1  0
A    1
C1
A    2
C2
A    3
C3
A    4
C4
A    5
C5
A    6
C6
A    7
C7
A    8
C8
A    9
O1
A   10
N1
A   11
N2
A   12
N
A   13
CA
A   14
CB
A   15
C
A   16
O
A   17
OXT
M  END
>  <Id>  (38) 
1G3E_109_A_601

>  <ChainId>  (38) 
A

>  <AsymId>  (38) 
E

>  <SeqNum>  (38) 
601

>  <Name>  (38) 
2-(4-CARBAMIMIDOYL-2-HYDROXY-BENZYLAMINO)-PROPIONIC ACID

>  <SystematicName>  (38) 
(2S)-2-[(4-carbamimidoyl-2-hydroxy-phenyl)methylamino]propanoic acid

>  <Synonyms>  (38) 


>  <Type>  (38) 
NON-POLYMER

>  <Formula>  (38) 
C11 H15 N3 O3

>  <ObservedFormula>  (38) 
C11 N3 O3

>  <MolecularWeight>  (38) 
237.255

>  <ModifiedDate>  (38) 
2011-06-04

>  <Parent>  (38) 


>  <OneLetterCode>  (38) 


>  <SubcomponentList>  (38) 


>  <AmbiguousFlag>  (38) 
N

>  <InsertionCode>  (38) 


>  <InstanceId>  (38) 
1G3E_109_A_601

>  <ChemCompId>  (38) 
109

>  <PdbId>  (38) 
1G3E

>  <ResidueNumber>  (38) 
601

>  <InChI>  (38) 
InChI=1S/C11H15N3O3/c1-6(11(16)17)14-5-8-3-2-7(10(12)13)4-9(8)15/h2-4,6,14-15H,5H2,1H3,(H3,12,13)(H,16,17)/t6-/m0/s1

>  <InChIKey>  (38) 
DQRWCBYLVLYBIF-LURJTMIESA-N

>  <SMILES>  (38) 
C[C@@H](C(=O)O)NCc1ccc(cc1O)C(=N)N

>  <MissingHeavyAtoms>  (38) 
0

>  <Model>  (38) 
1

>  <AltIds>  (38) 


>  <pKI>  (38) 
5.52

>  <ChemblID>  (38) 
-

>  <standardized_canonical_smiles>  (38) 
C[C@H](NCc1ccc(C(=N)N)cc1O)C(=O)O

$$$$
1G3D_108_A_601
     RDKit          3D

 17 17  0  0  0  0  0  0  0  0999 V2000
   43.9870   -2.6970   26.3260 C   0  0  0  0  0  0  0  0  0  0  0  0
   43.3470   -3.2410   27.4360 C   0  0  0  0  0  0  0  0  0  0  0  0
   43.1980   -2.5080   28.6200 C   0  0  0  0  0  0  0  0  0  0  0  0
   43.7030   -1.2100   28.6780 C   0  0  0  0  0  0  0  0  0  0  0  0
   44.3390   -0.6740   27.5640 C   0  0  0  0  0  0  0  0  0  0  0  0
   44.4800   -1.4050   26.4040 C   0  0  0  0  0  0  0  0  0  0  0  0
   42.5220   -3.1200   29.7500 C   0  0  0  0  0  0  0  0  0  0  0  0
   44.2130   -3.4920   25.1320 C   0  0  0  0  0  0  0  0  0  0  0  0
   43.6210   -0.4010   29.7540 O   0  0  0  0  0  0  0  0  0  0  0  0
   44.6130   -2.9060   24.0120 N   0  0  0  0  0  0  0  0  0  0  0  0
   44.0270   -4.8040   25.1560 N   0  0  0  0  0  0  0  0  0  0  0  0
   42.3180   -2.5430   30.9020 N   0  0  0  0  0  0  0  0  0  0  0  0
   41.6190   -3.3180   31.9250 C   0  0  0  0  0  0  0  0  0  0  0  0
   42.5800   -4.2920   32.5890 C   0  0  0  0  0  0  0  0  0  0  0  0
   40.9930   -2.4060   32.9730 C   0  0  0  0  0  0  0  0  0  0  0  0
   40.2610   -2.9110   33.8330 O   0  0  0  0  0  0  0  0  0  0  0  0
   41.2740   -1.1530   32.8900 O   0  0  0  0  0  0  0  0  0  0  0  0
  2  1  2  0
  6  1  1  0
  8  1  1  0
  3  2  1  0
  4  3  2  0
  7  3  1  0
  5  4  1  0
  9  4  1  0
  6  5  2  0
 12  7  1  0
 10  8  1  0
 11  8  2  0
 13 12  1  0
 14 13  1  0
 15 13  1  0
 16 15  2  0
 17 15  1  0
A    1
C1
A    2
C2
A    3
C3
A    4
C4
A    5
C5
A    6
C6
A    7
C7
A    8
C8
A    9
O1
A   10
N1
A   11
N2
A   12
N
A   13
CA
A   14
CB
A   15
C
A   16
O
A   17
OXT
M  END
>  <Id>  (39) 
1G3D_108_A_601

>  <ChainId>  (39) 
A

>  <AsymId>  (39) 
E

>  <SeqNum>  (39) 
601

>  <Name>  (39) 
2-(5-CARBAMIMIDOYL-2-HYDROXY-BENZYLAMINO)-PROPIONIC ACID

>  <SystematicName>  (39) 
(2S)-2-[(5-carbamimidoyl-2-hydroxy-phenyl)methylamino]propanoic acid

>  <Synonyms>  (39) 


>  <Type>  (39) 
NON-POLYMER

>  <Formula>  (39) 
C11 H15 N3 O3

>  <ObservedFormula>  (39) 
C11 N3 O3

>  <MolecularWeight>  (39) 
237.255

>  <ModifiedDate>  (39) 
2011-06-04

>  <Parent>  (39) 


>  <OneLetterCode>  (39) 


>  <SubcomponentList>  (39) 


>  <AmbiguousFlag>  (39) 
N

>  <InsertionCode>  (39) 


>  <InstanceId>  (39) 
1G3D_108_A_601

>  <ChemCompId>  (39) 
108

>  <PdbId>  (39) 
1G3D

>  <ResidueNumber>  (39) 
601

>  <InChI>  (39) 
InChI=1S/C11H15N3O3/c1-6(11(16)17)14-5-8-4-7(10(12)13)2-3-9(8)15/h2-4,6,14-15H,5H2,1H3,(H3,12,13)(H,16,17)/t6-/m0/s1

>  <InChIKey>  (39) 
CUGPJCUEKAARCR-LURJTMIESA-N

>  <SMILES>  (39) 
C[C@@H](C(=O)O)NCc1cc(ccc1O)C(=N)N

>  <MissingHeavyAtoms>  (39) 
0

>  <Model>  (39) 
1

>  <AltIds>  (39) 


>  <pKI>  (39) 
5.64

>  <ChemblID>  (39) 
-

>  <standardized_canonical_smiles>  (39) 
C[C@H](NCc1cc(C(=N)N)ccc1O)C(=O)O

$$$$
1G3B_108_A_601
     RDKit          3D

 17 17  0  0  0  0  0  0  0  0999 V2000
   44.1090   -2.9930   26.0760 C   0  0  0  0  0  0  0  0  0  0  0  0
   43.2660   -3.5420   27.0310 C   0  0  0  0  0  0  0  0  0  0  0  0
   43.0600   -2.9090   28.2600 C   0  0  0  0  0  0  0  0  0  0  0  0
   43.7190   -1.7020   28.5170 C   0  0  0  0  0  0  0  0  0  0  0  0
   44.5590   -1.1660   27.5490 C   0  0  0  0  0  0  0  0  0  0  0  0
   44.7500   -1.8000   26.3490 C   0  0  0  0  0  0  0  0  0  0  0  0
   42.1620   -3.5280   29.2170 C   0  0  0  0  0  0  0  0  0  0  0  0
   44.3430   -3.6710   24.8260 C   0  0  0  0  0  0  0  0  0  0  0  0
   43.6110   -0.9890   29.6540 O   0  0  0  0  0  0  0  0  0  0  0  0
   44.8000   -2.9900   23.7840 N   0  0  0  0  0  0  0  0  0  0  0  0
   44.1020   -4.9700   24.7200 N   0  0  0  0  0  0  0  0  0  0  0  0
   41.8780   -3.0520   30.3930 N   0  0  0  0  0  0  0  0  0  0  0  0
   40.9480   -3.8090   31.2190 C   0  0  0  0  0  0  0  0  0  0  0  0
   41.6450   -5.0310   31.8120 C   0  0  0  0  0  0  0  0  0  0  0  0
   40.3980   -2.9300   32.3310 C   0  0  0  0  0  0  0  0  0  0  0  0
   39.3270   -3.2390   32.8580 O   0  0  0  0  0  0  0  0  0  0  0  0
   41.1050   -1.9020   32.6520 O   0  0  0  0  0  0  0  0  0  0  0  0
  2  1  2  0
  6  1  1  0
  8  1  1  0
  3  2  1  0
  4  3  2  0
  7  3  1  0
  5  4  1  0
  9  4  1  0
  6  5  2  0
 12  7  1  0
 10  8  1  0
 11  8  2  0
 13 12  1  0
 14 13  1  0
 15 13  1  0
 16 15  2  0
 17 15  1  0
A    1
C1
A    2
C2
A    3
C3
A    4
C4
A    5
C5
A    6
C6
A    7
C7
A    8
C8
A    9
O1
A   10
N1
A   11
N2
A   12
N
A   13
CA
A   14
CB
A   15
C
A   16
O
A   17
OXT
M  END
>  <Id>  (40) 
1G3B_108_A_601

>  <ChainId>  (40) 
A

>  <AsymId>  (40) 
E

>  <SeqNum>  (40) 
601

>  <Name>  (40) 
2-(5-CARBAMIMIDOYL-2-HYDROXY-BENZYLAMINO)-PROPIONIC ACID

>  <SystematicName>  (40) 
(2S)-2-[(5-carbamimidoyl-2-hydroxy-phenyl)methylamino]propanoic acid

>  <Synonyms>  (40) 


>  <Type>  (40) 
NON-POLYMER

>  <Formula>  (40) 
C11 H15 N3 O3

>  <ObservedFormula>  (40) 
C11 N3 O3

>  <MolecularWeight>  (40) 
237.255

>  <ModifiedDate>  (40) 
2011-06-04

>  <Parent>  (40) 


>  <OneLetterCode>  (40) 


>  <SubcomponentList>  (40) 


>  <AmbiguousFlag>  (40) 
N

>  <InsertionCode>  (40) 


>  <InstanceId>  (40) 
1G3B_108_A_601

>  <ChemCompId>  (40) 
108

>  <PdbId>  (40) 
1G3B

>  <ResidueNumber>  (40) 
601

>  <InChI>  (40) 
InChI=1S/C11H15N3O3/c1-6(11(16)17)14-5-8-4-7(10(12)13)2-3-9(8)15/h2-4,6,14-15H,5H2,1H3,(H3,12,13)(H,16,17)/t6-/m0/s1

>  <InChIKey>  (40) 
CUGPJCUEKAARCR-LURJTMIESA-N

>  <SMILES>  (40) 
C[C@@H](C(=O)O)NCc1cc(ccc1O)C(=N)N

>  <MissingHeavyAtoms>  (40) 
0

>  <Model>  (40) 
1

>  <AltIds>  (40) 


>  <pKI>  (40) 
5.64

>  <ChemblID>  (40) 
-

>  <standardized_canonical_smiles>  (40) 
C[C@H](NCc1cc(C(=N)N)ccc1O)C(=O)O

$$$$
3AAS_GUS_A_1001
     RDKit          3D

 18 18  0  0  0  0  0  0  0  0999 V2000
   -0.5740   18.8000   21.2800 C   0  0  0  0  0  0  0  0  0  0  0  0
   -1.1730   16.8280   19.9230 N   0  0  0  0  0  0  0  0  0  0  0  0
   -0.8440   19.9350   21.7300 O   0  0  0  0  0  0  0  0  0  0  0  0
   -1.5760   18.1920   20.2970 C   0  0  0  0  0  0  0  0  0  0  0  0
   -2.9600   18.1480   20.9460 C   0  0  0  0  0  0  0  0  0  0  0  0
   -2.5540   14.2610   14.1580 N   0  0  0  0  0  0  0  0  0  0  0  0
   -2.5980   13.0080   14.5990 C   0  0  0  0  0  0  0  0  0  0  0  0
   -2.4520   12.6960   15.8630 N   0  0  0  0  0  0  0  0  0  0  0  0
   -1.8830   13.1190   16.9890 C   0  0  0  0  0  0  0  0  0  0  0  0
   -0.9960   12.3240   17.7080 C   0  0  0  0  0  0  0  0  0  0  0  0
   -0.3940   12.8190   18.8590 C   0  0  0  0  0  0  0  0  0  0  0  0
   -2.8080   12.0190   13.7330 N   0  0  0  0  0  0  0  0  0  0  0  0
   -2.1650   14.4030   17.4370 C   0  0  0  0  0  0  0  0  0  0  0  0
   -1.5660   14.9020   18.5850 C   0  0  0  0  0  0  0  0  0  0  0  0
   -0.6740   14.1070   19.2990 C   0  0  0  0  0  0  0  0  0  0  0  0
   -0.0680   14.5850   20.4190 O   0  0  0  0  0  0  0  0  0  0  0  0
   -1.8480   16.2090   18.9750 C   0  0  0  0  0  0  0  0  0  0  0  0
    0.4390   18.1220   21.5590 O   0  0  0  0  0  0  0  0  0  0  0  0
  3  1  2  0
  4  1  1  0
 18  1  1  0
  4  2  1  0
 17  2  2  0
  5  4  1  0
  7  6  2  0
  8  7  1  0
 12  7  1  0
  9  8  1  0
 10  9  2  0
 13  9  1  0
 11 10  1  0
 15 11  2  0
 14 13  2  0
 15 14  1  0
 17 14  1  0
 16 15  1  0
A    1
C
A    2
N
A    3
O
A    4
CA
A    5
CB
A    6
NAA
A    7
CAB
A    8
NAC
A    9
CAD
A   10
CAE
A   11
CAF
A   12
NAG
A   13
CAH
A   14
CAI
A   15
CAJ
A   16
OAK
A   17
CAL
A   18
OXT
M  END
>  <Id>  (41) 
3AAS_GUS_A_1001

>  <ChainId>  (41) 
A

>  <AsymId>  (41) 
B

>  <SeqNum>  (41) 
1001

>  <Name>  (41) 
(E)-N-[(5-carbamimidamido-2-hydroxyphenyl)methylidene]-L-alanine

>  <SystematicName>  (41) 
(2S)-2-[(E)-(5-carbamimidamido-2-hydroxy-phenyl)methylideneamino]propanoic acid

>  <Synonyms>  (41) 
m-guanidinosalicylidene-L-alanine

>  <Type>  (41) 
NON-POLYMER

>  <Formula>  (41) 
C11 H14 N4 O3

>  <ObservedFormula>  (41) 
C11 N4 O3

>  <MolecularWeight>  (41) 
250.254

>  <ModifiedDate>  (41) 
2011-06-04

>  <Parent>  (41) 


>  <OneLetterCode>  (41) 


>  <SubcomponentList>  (41) 


>  <AmbiguousFlag>  (41) 
N

>  <InsertionCode>  (41) 


>  <InstanceId>  (41) 
3AAS_GUS_A_1001

>  <ChemCompId>  (41) 
GUS

>  <PdbId>  (41) 
3AAS

>  <ResidueNumber>  (41) 
1001

>  <InChI>  (41) 
InChI=1S/C11H14N4O3/c1-6(10(17)18)14-5-7-4-8(15-11(12)13)2-3-9(7)16/h2-6,16H,1H3,(H,17,18)(H4,12,13,15)/b14-5+/t6-/m0/s1

>  <InChIKey>  (41) 
XIDJFBOMDZEVTM-JHKKWMAKSA-N

>  <SMILES>  (41) 
[H]/N=C(\N)/Nc1ccc(c(c1)/C=N/[C@@H](C)C(=O)O)O

>  <MissingHeavyAtoms>  (41) 
0

>  <Model>  (41) 
1

>  <AltIds>  (41) 


>  <pKI>  (41) 
4.51

>  <ChemblID>  (41) 
-

>  <standardized_canonical_smiles>  (41) 
C[C@H](/N=C/c1cc(NC(=N)N)ccc1O)C(=O)O

$$$$
1QB9_806_A_300
     RDKit          3D

 37 42  0  0  0  0  0  0  0  0999 V2000
   19.6800    2.1500   53.8100 N   0  0  0  0  0  0  0  0  0  0  0  0
   19.9090    1.5210   54.9540 C   0  0  0  0  0  0  0  0  0  0  0  0
   18.8690    0.7860   55.3640 N   0  0  0  0  0  0  0  0  0  0  0  0
   21.0750    1.6030   55.7630 C   0  0  0  0  0  0  0  0  0  0  0  0
   22.2160    2.3270   55.3700 C   0  0  0  0  0  0  0  0  0  0  0  0
   23.3650    2.3730   56.2070 C   0  0  0  0  0  0  0  0  0  0  0  0
   24.5020    3.1220   55.8000 C   0  0  0  0  0  0  0  0  0  0  0  0
   25.6700    3.1410   56.6190 C   0  0  0  0  0  0  0  0  0  0  0  0
   25.6610    2.4280   57.8380 C   0  0  0  0  0  0  0  0  0  0  0  0
   24.5350    1.7160   58.2620 C   0  0  0  0  0  0  0  0  0  0  0  0
   23.3760    1.6660   57.4410 C   0  0  0  0  0  0  0  0  0  0  0  0
   22.2570    0.9260   57.8630 C   0  0  0  0  0  0  0  0  0  0  0  0
   21.1210    0.9080   57.0200 C   0  0  0  0  0  0  0  0  0  0  0  0
   26.9010    3.9020   56.1750 C   0  0  0  0  0  0  0  0  0  0  0  0
   28.1230    3.1900   56.5870 N   0  0  0  0  0  0  0  0  0  0  0  0
   28.8770    3.5270   57.6880 C   0  0  0  0  0  0  0  0  0  0  0  0
   29.9340    2.6340   57.8400 C   0  0  0  0  0  0  0  0  0  0  0  0
   29.8170    1.7300   56.8040 C   0  0  0  0  0  0  0  0  0  0  0  0
   28.6860    2.0890   56.0410 C   0  0  0  0  0  0  0  0  0  0  0  0
   30.6510    0.6320   56.5360 C   0  0  0  0  0  0  0  0  0  0  0  0
   30.3180   -0.1420   55.4170 C   0  0  0  0  0  0  0  0  0  0  0  0
   29.1710    0.1870   54.6210 C   0  0  0  0  0  0  0  0  0  0  0  0
   28.3620    1.2810   54.9170 C   0  0  0  0  0  0  0  0  0  0  0  0
   30.8970    2.6960   58.8640 C   0  0  0  0  0  0  0  0  0  0  0  0
   30.7770    3.7480   59.7920 C   0  0  0  0  0  0  0  0  0  0  0  0
   29.7080    4.6710   59.6700 C   0  0  0  0  0  0  0  0  0  0  0  0
   28.7530    4.5750   58.6320 C   0  0  0  0  0  0  0  0  0  0  0  0
   28.9380   -0.6660   53.5510 O   0  0  0  0  0  0  0  0  0  0  0  0
   29.8570   -1.8200   53.3930 C   0  0  0  0  0  0  0  0  0  0  0  0
   31.3180   -1.3350   53.1880 C   0  0  0  0  0  0  0  0  0  0  0  0
   31.6910   -1.3610   51.6590 C   0  0  0  0  0  0  0  0  0  0  0  0
   31.7100   -2.7510   51.2380 N   0  0  0  0  0  0  0  0  0  0  0  0
   30.4790   -3.4770   51.5120 C   0  0  0  0  0  0  0  0  0  0  0  0
   29.3770   -2.6870   52.2250 C   0  0  0  0  0  0  0  0  0  0  0  0
   32.7940   -3.3460   50.6280 C   0  0  0  0  0  0  0  0  0  0  0  0
   32.7680   -4.6500   50.2360 N   0  0  0  0  0  0  0  0  0  0  0  0
   34.0800   -2.6720   50.3310 C   0  0  0  0  0  0  0  0  0  0  0  0
  2  1  2  0
  3  2  1  0
  4  2  1  0
  5  4  2  0
 13  4  1  0
  6  5  1  0
  7  6  2  0
 11  6  1  0
  8  7  1  0
  9  8  2  0
 14  8  1  0
 10  9  1  0
 11 10  2  0
 12 11  1  0
 13 12  2  0
 15 14  1  0
 16 15  1  0
 19 15  1  0
 17 16  2  0
 27 16  1  0
 18 17  1  0
 24 17  1  0
 19 18  1  0
 20 18  2  0
 23 19  2  0
 21 20  1  0
 22 21  2  0
 23 22  1  0
 28 22  1  0
 25 24  2  0
 26 25  1  0
 27 26  2  0
 29 28  1  0
 30 29  1  0
 34 29  1  0
 31 30  1  0
 32 31  1  0
 33 32  1  0
 35 32  1  0
 34 33  1  0
 36 35  2  0
 37 35  1  0
A    1
N1
A    2
C1
A    3
N2
A    4
C2
A    5
C3
A    6
C4
A    7
C5
A    8
C6
A    9
C7
A   10
C8
A   11
C9
A   12
C10
A   13
C11
A   14
C12
A   15
N21
A   16
C21
A   17
C22
A   18
C23
A   19
C24
A   20
C25
A   21
C26
A   22
C27
A   23
C28
A   24
C29
A   25
C30
A   26
C31
A   27
C32
A   28
O
A   29
C41
A   30
C42
A   31
C43
A   32
N41
A   33
C44
A   34
C45
A   35
C46
A   36
N42
A   37
C47
M  END
>  <Id>  (42) 
1QB9_806_A_300

>  <ChainId>  (42) 
A

>  <AsymId>  (42) 
E

>  <SeqNum>  (42) 
300

>  <Name>  (42) 
7-[[2-[[1-(1-IMINOETHYL)PIPERIDIN-4-YL]OXY]-9H-CARBOZOL-9-YL]METHYL]NAPHTHALENE-2-CARBOXIMIDAMID

>  <SystematicName>  (42) 
7-[[2-(1-ethanimidoylpiperidin-4-yl)oxycarbazol-9-yl]methyl]naphthalene-2-carboximidamide

>  <Synonyms>  (42) 
ZK-806450

>  <Type>  (42) 
NON-POLYMER

>  <Formula>  (42) 
C31 H31 N5 O

>  <ObservedFormula>  (42) 
C31 N5 O

>  <MolecularWeight>  (42) 
489.611

>  <ModifiedDate>  (42) 
2011-06-04

>  <Parent>  (42) 


>  <OneLetterCode>  (42) 


>  <SubcomponentList>  (42) 


>  <AmbiguousFlag>  (42) 
N

>  <InsertionCode>  (42) 


>  <InstanceId>  (42) 
1QB9_806_A_300

>  <ChemCompId>  (42) 
806

>  <PdbId>  (42) 
1QB9

>  <ResidueNumber>  (42) 
300

>  <InChI>  (42) 
InChI=1S/C31H31N5O/c1-20(32)35-14-12-25(13-15-35)37-26-10-11-28-27-4-2-3-5-29(27)36(30(28)18-26)19-21-6-7-22-8-9-23(31(33)34)17-24(22)16-21/h2-11,16-18,25,32H,12-15,19H2,1H3,(H3,33,34)/b32-20-

>  <InChIKey>  (42) 
DZLGSWPXZYDHBD-RGXNXFOYSA-N

>  <SMILES>  (42) 
[H]/N=C(/C)\N1CCC(CC1)Oc2ccc3c4ccccc4n(c3c2)Cc5ccc6ccc(cc6c5)C(=N)N

>  <MissingHeavyAtoms>  (42) 
0

>  <Model>  (42) 
1

>  <AltIds>  (42) 


>  <pKI>  (42) 
7.44

>  <ChemblID>  (42) 
-

>  <standardized_canonical_smiles>  (42) 
CC(=N)N1CCC(Oc2ccc3c4ccccc4n(Cc4ccc5ccc(C(=N)N)cc5c4)c3c2)CC1

$$$$
1QBO_711_A_300
     RDKit          3D

 34 38  0  0  0  0  0  0  0  0999 V2000
   19.9720    2.2570   54.3110 N   0  0  0  0  0  0  0  0  0  0  0  0
   20.0620    1.5510   55.3560 C   0  0  0  0  0  0  0  0  0  0  0  0
   18.9850    0.7930   55.7530 N   0  0  0  0  0  0  0  0  0  0  0  0
   21.1670    1.5710   56.1090 C   0  0  0  0  0  0  0  0  0  0  0  0
   22.2750    2.3240   55.6880 C   0  0  0  0  0  0  0  0  0  0  0  0
   23.4470    2.3680   56.4640 C   0  0  0  0  0  0  0  0  0  0  0  0
   24.4830    3.1160   56.0120 C   0  0  0  0  0  0  0  0  0  0  0  0
   25.6730    3.1150   56.7850 C   0  0  0  0  0  0  0  0  0  0  0  0
   25.7470    2.3730   57.9730 C   0  0  0  0  0  0  0  0  0  0  0  0
   24.6480    1.6250   58.4160 C   0  0  0  0  0  0  0  0  0  0  0  0
   23.5150    1.6290   57.6640 C   0  0  0  0  0  0  0  0  0  0  0  0
   22.4050    0.8770   58.0950 C   0  0  0  0  0  0  0  0  0  0  0  0
   21.2260    0.8620   57.3340 C   0  0  0  0  0  0  0  0  0  0  0  0
   26.7860    3.8890   56.3190 C   0  0  0  0  0  0  0  0  0  0  0  0
   28.0440    3.2560   56.7410 N   0  0  0  0  0  0  0  0  0  0  0  0
   28.9560    3.6620   57.8740 C   0  0  0  0  0  0  0  0  0  0  0  0
   28.7270    4.7860   58.7280 C   0  0  0  0  0  0  0  0  0  0  0  0
   30.0210    2.8670   57.9880 N   0  0  0  0  0  0  0  0  0  0  0  0
   29.9120    1.9710   57.0550 C   0  0  0  0  0  0  0  0  0  0  0  0
   30.7690    0.9040   56.7730 C   0  0  0  0  0  0  0  0  0  0  0  0
   30.5030    0.0380   55.7080 C   0  0  0  0  0  0  0  0  0  0  0  0
   29.3430    0.2150   54.9280 C   0  0  0  0  0  0  0  0  0  0  0  0
   28.4660    1.2800   55.2080 C   0  0  0  0  0  0  0  0  0  0  0  0
   28.7530    2.1720   56.2730 C   0  0  0  0  0  0  0  0  0  0  0  0
   29.2120   -0.7000   53.9230 O   0  0  0  0  0  0  0  0  0  0  0  0
   30.3250   -1.5990   53.9140 C   0  0  0  0  0  0  0  0  0  0  0  0
   31.4760   -1.0950   53.0590 C   0  0  0  0  0  0  0  0  0  0  0  0
   31.4740   -1.5830   51.6030 C   0  0  0  0  0  0  0  0  0  0  0  0
   31.2110   -3.0350   51.5630 N   0  0  0  0  0  0  0  0  0  0  0  0
   29.9460   -3.4930   52.1910 C   0  0  0  0  0  0  0  0  0  0  0  0
   29.8670   -3.0210   53.6270 C   0  0  0  0  0  0  0  0  0  0  0  0
   32.0730   -3.8860   50.9870 C   0  0  0  0  0  0  0  0  0  0  0  0
   31.8250   -5.3090   50.9520 N   0  0  0  0  0  0  0  0  0  0  0  0
   33.2880   -3.3880   50.4050 C   0  0  0  0  0  0  0  0  0  0  0  0
  2  1  2  0
  3  2  1  0
  4  2  1  0
  5  4  2  0
 13  4  1  0
  6  5  1  0
  7  6  2  0
 11  6  1  0
  8  7  1  0
  9  8  2  0
 14  8  1  0
 10  9  1  0
 11 10  2  0
 12 11  1  0
 13 12  2  0
 15 14  1  0
 16 15  2  0
 24 15  1  0
 17 16  1  0
 18 16  1  0
 19 18  1  0
 20 19  1  0
 24 19  2  0
 21 20  2  0
 22 21  1  0
 23 22  2  0
 25 22  1  0
 24 23  1  0
 26 25  1  0
 27 26  1  0
 31 26  1  0
 28 27  1  0
 29 28  1  0
 30 29  1  0
 32 29  1  0
 31 30  1  0
 33 32  2  0
 34 32  1  0
M  CHG  1  15   1
A    1
N1
A    2
C1
A    3
N2
A    4
C2
A    5
C3
A    6
C4
A    7
C5
A    8
C6
A    9
C7
A   10
C8
A   11
C9
A   12
C10
A   13
C11
A   14
C12
A   15
N21
A   16
C21
A   17
C22
A   18
N22
A   19
C23
A   20
C24
A   21
C25
A   22
C26
A   23
C27
A   24
C28
A   25
O
A   26
C31
A   27
C32
A   28
C33
A   29
N31
A   30
C34
A   31
C35
A   32
C36
A   33
N32
A   34
C37
M  END
>  <Id>  (43) 
1QBO_711_A_300

>  <ChainId>  (43) 
A

>  <AsymId>  (43) 
D

>  <SeqNum>  (43) 
300

>  <Name>  (43) 
7-[[6-[[1-(1-IMINOETHYL)PIPERIDIN-4-YL]OXY]-2-METHYL-BENZIMIDAZOL-1-YL]METHYL]NAPHTHALENE-2-CARBOXIMIDAMID

>  <SystematicName>  (43) 
7-[[6-(1-ethanimidoylpiperidin-4-yl)oxy-2-methyl-3H-benzimidazol-1-ium-1-yl]methyl]naphthalene-2-carboximidamide

>  <Synonyms>  (43) 
ZK-806711

>  <Type>  (43) 
NON-POLYMER

>  <Formula>  (43) 
C27 H31 N6 O

>  <ObservedFormula>  (43) 
C27 N6 O

>  <MolecularWeight>  (43) 
455.575

>  <ModifiedDate>  (43) 
2011-06-04

>  <Parent>  (43) 


>  <OneLetterCode>  (43) 


>  <SubcomponentList>  (43) 


>  <AmbiguousFlag>  (43) 
N

>  <InsertionCode>  (43) 


>  <InstanceId>  (43) 
1QBO_711_A_300

>  <ChemCompId>  (43) 
711

>  <PdbId>  (43) 
1QBO

>  <ResidueNumber>  (43) 
300

>  <InChI>  (43) 
InChI=1S/C27H30N6O/c1-17(28)32-11-9-23(10-12-32)34-24-7-8-25-26(15-24)33(18(2)31-25)16-19-3-4-20-5-6-21(27(29)30)14-22(20)13-19/h3-8,13-15,23,28H,9-12,16H2,1-2H3,(H3,29,30)/p+1/b28-17-

>  <InChIKey>  (43) 
JABMRQOJSAZJAD-QRQIAZFYSA-O

>  <SMILES>  (43) 
Cc1[nH]c2ccc(cc2[n+]1Cc3ccc4ccc(cc4c3)C(=N)N)OC5CCN(CC5)C(=N)C

>  <MissingHeavyAtoms>  (43) 
0

>  <Model>  (43) 
1

>  <AltIds>  (43) 


>  <pKI>  (43) 
7.74

>  <ChemblID>  (43) 
-

>  <standardized_canonical_smiles>  (43) 
CC(=N)N1CCC(Oc2ccc3[nH]c(C)[n+](Cc4ccc5ccc(C(=N)N)cc5c4)c3c2)CC1

$$$$
1OYQ_T87_A_1
     RDKit          3D

 39 43  0  0  0  0  0  0  0  0999 V2000
   -5.0190   10.1310   19.8050 N   0  0  0  0  0  0  0  0  0  0  0  0
   -3.1090   10.8320   19.0180 N   0  0  0  0  0  0  0  0  0  0  0  0
   -3.7590    9.8110   19.5430 C   0  0  0  0  0  0  0  0  0  0  0  0
   -3.1990    8.5470   19.7670 C   0  0  0  0  0  0  0  0  0  0  0  0
   -3.9600    7.4910   20.3590 C   0  0  0  0  0  0  0  0  0  0  0  0
   -3.4050    6.2260   20.5810 C   0  0  0  0  0  0  0  0  0  0  0  0
   -2.0670    5.9600   20.2190 C   0  0  0  0  0  0  0  0  0  0  0  0
   -1.2860    6.9720   19.6350 C   0  0  0  0  0  0  0  0  0  0  0  0
   -1.8370    8.2440   19.4110 C   0  0  0  0  0  0  0  0  0  0  0  0
   -1.4620    4.6710   20.4280 N   0  0  0  0  0  0  0  0  0  0  0  0
   -1.9140    3.5810   21.3250 C   0  0  0  0  0  0  0  0  0  0  0  0
   -3.3210    4.2790   23.2760 N   0  0  0  0  0  0  0  0  0  0  0  0
   -2.0490    3.9470   22.8090 C   0  0  0  0  0  0  0  0  0  0  0  0
   -0.9360    3.9540   23.6790 N   0  0  0  0  0  0  0  0  0  0  0  0
   -1.6050    4.3430   24.8400 C   0  0  0  0  0  0  0  0  0  0  0  0
   -3.0180    4.5350   24.5940 C   0  0  0  0  0  0  0  0  0  0  0  0
   -1.0780    4.5600   26.1550 C   0  0  0  0  0  0  0  0  0  0  0  0
   -1.9480    4.9610   27.1810 C   0  0  0  0  0  0  0  0  0  0  0  0
   -3.3470    5.1540   26.9540 C   0  0  0  0  0  0  0  0  0  0  0  0
   -3.8870    4.9410   25.6560 C   0  0  0  0  0  0  0  0  0  0  0  0
    0.5100    3.6470   23.4490 C   0  0  0  0  0  0  0  0  0  0  0  0
   -5.7810    5.6030   28.0770 C   0  0  0  0  0  0  0  0  0  0  0  0
   -5.0300    6.9050   27.7080 C   0  0  0  0  0  0  0  0  0  0  0  0
   -4.2700    5.6670   28.1120 C   0  0  0  0  0  0  0  0  0  0  0  0
   -3.6240    5.2410   29.4620 C   0  0  0  0  0  0  0  0  0  0  0  0
   -3.7730    4.0090   29.8970 N   0  0  0  0  0  0  0  0  0  0  0  0
   -2.8060    6.2900   31.6930 N   0  0  0  0  0  0  0  0  0  0  0  0
   -2.7890    6.2830   30.2730 C   0  0  0  0  0  0  0  0  0  0  0  0
   -2.0000    7.2410   29.5940 C   0  0  0  0  0  0  0  0  0  0  0  0
   -1.2420    8.1850   30.3270 C   0  0  0  0  0  0  0  0  0  0  0  0
   -1.2610    8.1900   31.7450 C   0  0  0  0  0  0  0  0  0  0  0  0
   -2.0430    7.2420   32.4320 C   0  0  0  0  0  0  0  0  0  0  0  0
   -4.5710    3.0370   29.1000 O   0  0  0  0  0  0  0  0  0  0  0  0
   -4.6000    1.7620   29.7460 C   0  0  0  0  0  0  0  0  0  0  0  0
   -5.3700    0.7670   28.8600 C   0  0  0  0  0  0  0  0  0  0  0  0
   -6.0520   -0.1190   29.3960 O   0  0  0  0  0  0  0  0  0  0  0  0
   -5.2870    0.8810   27.4870 O   0  0  0  0  0  0  0  0  0  0  0  0
   -6.2810    0.2790   25.3430 C   0  0  0  0  0  0  0  0  0  0  0  0
   -6.0670   -0.1290   26.8150 C   0  0  0  0  0  0  0  0  0  0  0  0
  3  1  2  0
  3  2  1  0
  4  3  1  0
  5  4  2  0
  9  4  1  0
  6  5  1  0
  7  6  2  0
  8  7  1  0
 10  7  1  0
  9  8  2  0
 11 10  1  0
 13 11  1  0
 13 12  2  0
 16 12  1  0
 14 13  1  0
 15 14  1  0
 21 14  1  0
 16 15  2  0
 17 15  1  0
 20 16  1  0
 18 17  2  0
 19 18  1  0
 20 19  2  0
 24 19  1  0
 23 22  1  0
 24 22  1  0
 24 23  1  0
 25 24  1  0
 26 25  2  0
 28 25  1  0
 33 26  1  0
 28 27  2  0
 32 27  1  0
 29 28  1  0
 30 29  2  0
 31 30  1  0
 32 31  2  0
 34 33  1  0
 35 34  1  0
 36 35  2  0
 37 35  1  0
 39 37  1  0
 39 38  1  0
A    1
N1
A    2
N2
A    3
C1
A    4
C2
A    5
C3
A    6
C4
A    7
C5
A    8
C6
A    9
C7
A   10
N
A   11
C
A   12
N3
A   13
C8
A   14
N9
A   15
C3A
A   16
C7A
A   17
C10
A   18
C11
A   19
C12
A   20
C13
A   21
C14
A   22
C9
A   23
C15
A   24
C16
A   25
C17
A   26
N4
A   27
N5
A   28
C18
A   29
C19
A   30
C20
A   31
C21
A   32
C22
A   33
OH
A   34
C23
A   35
C24
A   36
O2
A   37
O3
A   38
C25
A   39
C26
M  END
>  <Id>  (44) 
1OYQ_T87_A_1

>  <ChainId>  (44) 
A

>  <AsymId>  (44) 
D

>  <SeqNum>  (44) 
1

>  <Name>  (44) 
[(1-{2[(4-CARBAMIMIDOYL-PHENYLAMINO)-METHYL]-1-METHYL-1H-BENZOIMIDAZOL-5-YL}-CYCLOPROPYL)-PYRIDIN-2-YL-METHYLENEAMINOOXY]-ACETIC ACID ETHYL ESTER

>  <SystematicName>  (44) 
ethyl 2-[[[1-[2-[[(4-carbamimidoylphenyl)amino]methyl]-1-methyl-benzimidazol-5-yl]cyclopropyl]-pyridin-2-yl-methylidene]amino]oxyethanoate

>  <Synonyms>  (44) 


>  <Type>  (44) 
NON-POLYMER

>  <Formula>  (44) 
C29 H31 N7 O3

>  <ObservedFormula>  (44) 
C29 N7 O3

>  <MolecularWeight>  (44) 
525.602

>  <ModifiedDate>  (44) 
2011-06-04

>  <Parent>  (44) 


>  <OneLetterCode>  (44) 


>  <SubcomponentList>  (44) 


>  <AmbiguousFlag>  (44) 
N

>  <InsertionCode>  (44) 


>  <InstanceId>  (44) 
1OYQ_T87_A_1

>  <ChemCompId>  (44) 
T87

>  <PdbId>  (44) 
1OYQ

>  <ResidueNumber>  (44) 
1

>  <InChI>  (44) 
InChI=1S/C29H31N7O3/c1-3-38-26(37)18-39-35-27(22-6-4-5-15-32-22)29(13-14-29)20-9-12-24-23(16-20)34-25(36(24)2)17-33-21-10-7-19(8-11-21)28(30)31/h4-12,15-16,33H,3,13-14,17-18H2,1-2H3,(H3,30,31)/b35-27-

>  <InChIKey>  (44) 
RNOYCNIZOAIUSV-LSWMGQQCSA-N

>  <SMILES>  (44) 
[H]/N=C(/c1ccc(cc1)NCc2nc3cc(ccc3n2C)C4(CC4)/C(=N\OCC(=O)OCC)/c5ccccn5)\N

>  <MissingHeavyAtoms>  (44) 
0

>  <Model>  (44) 
1

>  <AltIds>  (44) 


>  <pKI>  (44) 
6.96

>  <ChemblID>  (44) 
-

>  <standardized_canonical_smiles>  (44) 
CCOC(=O)CO/N=C(/c1ccccn1)C1(c2ccc3c(c2)nc(CNc2ccc(C(=N)N)cc2)n3C)CC1

$$$$
4ABB_EDO_A_1250
     RDKit          3D

  4  3  0  0  0  0  0  0  0  0999 V2000
   -7.3620  -34.0280   -6.5550 C   0  0  0  0  0  0  0  0  0  0  0  0
   -7.3440  -33.6600   -7.9310 O   0  0  0  0  0  0  0  0  0  0  0  0
   -6.9950  -35.4740   -6.1990 C   0  0  0  0  0  0  0  0  0  0  0  0
   -5.7660  -35.8750   -6.8030 O   0  0  0  0  0  0  0  0  0  0  0  0
  2  1  1  0
  3  1  1  0
  4  3  1  0
A    1
C1
A    2
O1
A    3
C2
A    4
O2
M  END
>  <Id>  (45) 
4ABB_EDO_A_1250

>  <ChainId>  (45) 
A

>  <AsymId>  (45) 
F

>  <SeqNum>  (45) 
1250

>  <Name>  (45) 
1,2-ETHANEDIOL

>  <SystematicName>  (45) 
ethane-1,2-diol

>  <Synonyms>  (45) 
ETHYLENE GLYCOL

>  <Type>  (45) 
NON-POLYMER

>  <Formula>  (45) 
C2 H6 O2

>  <ObservedFormula>  (45) 
C2 O2

>  <MolecularWeight>  (45) 
62.068

>  <ModifiedDate>  (45) 
2018-05-16

>  <Parent>  (45) 


>  <OneLetterCode>  (45) 


>  <SubcomponentList>  (45) 


>  <AmbiguousFlag>  (45) 
N

>  <InsertionCode>  (45) 


>  <InstanceId>  (45) 
4ABB_EDO_A_1250

>  <ChemCompId>  (45) 
EDO

>  <PdbId>  (45) 
4ABB

>  <ResidueNumber>  (45) 
1250

>  <InChI>  (45) 
InChI=1S/C2H6O2/c3-1-2-4/h3-4H,1-2H2

>  <InChIKey>  (45) 
LYCAIKOWRPUZTN-UHFFFAOYSA-N

>  <SMILES>  (45) 
C(CO)O

>  <MissingHeavyAtoms>  (45) 
0

>  <Model>  (45) 
1

>  <AltIds>  (45) 


>  <pKI>  (45) 
8.0

>  <ChemblID>  (45) 
-

>  <standardized_canonical_smiles>  (45) 
CC(=O)N1C[C@H](O)C[C@H]1C(=O)N[C@@H](CCCNC(=N)N)C(=O)c1nc2ccccc2s1

$$$$
4ABB_DMS_A_1251
     RDKit          3D

  4  3  0  0  0  0  0  0  0  0999 V2000
  -14.0660   -3.9980   12.4990 S   0  0  0  0  0  0  0  0  0  0  0  0
  -14.9040   -5.0570   11.8290 O   0  0  0  0  0  0  0  0  0  0  0  0
  -15.2410   -2.9030   13.0470 C   0  0  0  0  0  0  0  0  0  0  0  0
  -13.2190   -3.0690   11.3870 C   0  0  0  0  0  0  0  0  0  0  0  0
  2  1  2  0
  3  1  1  0
  4  1  1  0
A    1
S
A    2
O
A    3
C1
A    4
C2
M  END
>  <Id>  (46) 
4ABB_DMS_A_1251

>  <ChainId>  (46) 
A

>  <AsymId>  (46) 
G

>  <SeqNum>  (46) 
1251

>  <Name>  (46) 
DIMETHYL SULFOXIDE

>  <SystematicName>  (46) 
methylsulfinylmethane

>  <Synonyms>  (46) 


>  <Type>  (46) 
NON-POLYMER

>  <Formula>  (46) 
C2 H6 O S

>  <ObservedFormula>  (46) 
S C2 O

>  <MolecularWeight>  (46) 
78.133

>  <ModifiedDate>  (46) 
2011-06-04

>  <Parent>  (46) 


>  <OneLetterCode>  (46) 


>  <SubcomponentList>  (46) 


>  <AmbiguousFlag>  (46) 
N

>  <InsertionCode>  (46) 


>  <InstanceId>  (46) 
4ABB_DMS_A_1251

>  <ChemCompId>  (46) 
DMS

>  <PdbId>  (46) 
4ABB

>  <ResidueNumber>  (46) 
1251

>  <InChI>  (46) 
InChI=1S/C2H6OS/c1-4(2)3/h1-2H3

>  <InChIKey>  (46) 
IAZDPXIOMUYVGZ-UHFFFAOYSA-N

>  <SMILES>  (46) 
CS(=O)C

>  <MissingHeavyAtoms>  (46) 
0

>  <Model>  (46) 
1

>  <AltIds>  (46) 


>  <pKI>  (46) 
8.0

>  <ChemblID>  (46) 
-

>  <standardized_canonical_smiles>  (46) 
CC(=O)N1C[C@H](O)C[C@H]1C(=O)N[C@@H](CCCNC(=N)N)C(=O)c1nc2ccccc2s1

$$$$
4ABB_K9S_A_1252
     RDKit          3D

 11 12  0  0  0  0  0  0  0  0999 V2000
    1.2680  -15.3950   15.7530 C   0  0  0  0  0  0  0  0  0  0  0  0
    1.9540  -16.1940   18.4390 N   0  0  0  0  0  0  0  0  0  0  0  0
    1.1050  -14.6540   14.2090 S   0  0  0  0  0  0  0  0  0  0  0  0
    1.7750  -13.1340   14.7650 C   0  0  0  0  0  0  0  0  0  0  0  0
    2.1480  -13.2550   16.1330 C   0  0  0  0  0  0  0  0  0  0  0  0
    1.8680  -14.4890   16.6930 C   0  0  0  0  0  0  0  0  0  0  0  0
    2.0200  -11.9520   14.0810 C   0  0  0  0  0  0  0  0  0  0  0  0
    2.6010  -10.8140   14.7530 C   0  0  0  0  0  0  0  0  0  0  0  0
    2.1440  -14.7840   18.1170 C   0  0  0  0  0  0  0  0  0  0  0  0
    2.9120  -10.9230   16.0570 C   0  0  0  0  0  0  0  0  0  0  0  0
    2.7090  -12.1640   16.8330 C   0  0  0  0  0  0  0  0  0  0  0  0
  3  1  1  0
  6  1  2  0
  9  2  1  0
  4  3  1  0
  5  4  2  0
  7  4  1  0
  6  5  1  0
 11  5  1  0
  9  6  1  0
  8  7  2  0
 10  8  1  0
 11 10  2  0
A    1
C1
A    2
N1
A    3
S2
A    4
C3
A    5
C4
A    6
C5
A    7
C6
A    8
C7
A    9
C10
A   10
C8
A   11
C9
M  END
>  <Id>  (47) 
4ABB_K9S_A_1252

>  <ChainId>  (47) 
A

>  <AsymId>  (47) 
H

>  <SeqNum>  (47) 
1252

>  <Name>  (47) 
1-(1-BENZOTHIOPHEN-3-YL)METHANAMINE

>  <SystematicName>  (47) 
1-benzothiophen-3-ylmethanamine

>  <Synonyms>  (47) 


>  <Type>  (47) 
non-polymer

>  <Formula>  (47) 
C9 H9 N S

>  <ObservedFormula>  (47) 
C9 S N

>  <MolecularWeight>  (47) 
163.239

>  <ModifiedDate>  (47) 
2014-09-05

>  <Parent>  (47) 


>  <OneLetterCode>  (47) 


>  <SubcomponentList>  (47) 


>  <AmbiguousFlag>  (47) 
N

>  <InsertionCode>  (47) 


>  <InstanceId>  (47) 
4ABB_K9S_A_1252

>  <ChemCompId>  (47) 
K9S

>  <PdbId>  (47) 
4ABB

>  <ResidueNumber>  (47) 
1252

>  <InChI>  (47) 
InChI=1S/C9H9NS/c10-5-7-6-11-9-4-2-1-3-8(7)9/h1-4,6H,5,10H2

>  <InChIKey>  (47) 
WHTPXNOFEHTZAD-UHFFFAOYSA-N

>  <SMILES>  (47) 
c1ccc2c(c1)c(cs2)CN

>  <MissingHeavyAtoms>  (47) 
0

>  <Model>  (47) 
1

>  <AltIds>  (47) 


>  <pKI>  (47) 
8.0

>  <ChemblID>  (47) 
-

>  <standardized_canonical_smiles>  (47) 
CC(=O)N1C[C@H](O)C[C@H]1C(=O)N[C@@H](CCCNC(=N)N)C(=O)c1nc2ccccc2s1

$$$$
1NC6_ABB_A_300
     RDKit          3D

 31 33  0  0  0  0  0  0  0  0999 V2000
   42.9260   24.9830   51.9510 N   0  0  0  0  0  0  0  0  0  0  0  0
   42.1130   26.1700   51.9010 C   0  0  0  0  0  0  0  0  0  0  0  0
   42.6050   24.2470   50.7510 C   0  0  0  0  0  0  0  0  0  0  0  0
   41.6090   24.9950   49.8970 C   0  0  0  0  0  0  0  0  0  0  0  0
   41.2700   26.1940   50.6340 C   0  0  0  0  0  0  0  0  0  0  0  0
   43.8730   23.9470   49.9320 C   0  0  0  0  0  0  0  0  0  0  0  0
   44.9350   24.3180   50.3610 O   0  0  0  0  0  0  0  0  0  0  0  0
   43.8700   22.4760   49.5650 N   0  0  0  0  0  0  0  0  0  0  0  0
   44.9500   21.7580   48.7840 C   0  0  0  0  0  0  0  0  0  0  0  0
   44.9510   20.2810   49.3230 C   0  0  0  0  0  0  0  0  0  0  0  0
   45.2090   20.3250   50.8320 C   0  0  0  0  0  0  0  0  0  0  0  0
   45.2130   18.9730   51.4780 C   0  0  0  0  0  0  0  0  0  0  0  0
   45.4730   19.1640   52.9210 N   0  0  0  0  0  0  0  0  0  0  0  0
   45.6300   17.9970   53.8330 C   0  0  0  0  0  0  0  0  0  0  0  0
   46.2850   18.2900   55.1370 N   0  0  0  0  0  0  0  0  0  0  0  0
   45.4720   16.8200   53.0350 N   0  0  0  0  0  0  0  0  0  0  0  0
   45.7980   21.0240   46.6110 O   0  0  0  0  0  0  0  0  0  0  0  0
   43.5470   24.0540   46.8260 N   0  0  0  0  0  0  0  0  0  0  0  0
   44.6650   23.2600   46.8320 C   0  0  0  0  0  0  0  0  0  0  0  0
   46.0500   24.1250   46.2890 S   0  0  0  0  0  0  0  0  0  0  0  0
   43.7950   25.3430   46.3970 C   0  0  0  0  0  0  0  0  0  0  0  0
   45.1580   25.5940   46.0400 C   0  0  0  0  0  0  0  0  0  0  0  0
   45.5590   26.8770   45.5820 C   0  0  0  0  0  0  0  0  0  0  0  0
   44.5980   27.9330   45.4730 C   0  0  0  0  0  0  0  0  0  0  0  0
   43.2220   27.7050   45.8250 C   0  0  0  0  0  0  0  0  0  0  0  0
   42.8180   26.3890   46.2920 C   0  0  0  0  0  0  0  0  0  0  0  0
   39.8930   26.1590   50.9890 O   0  0  0  0  0  0  0  0  0  0  0  0
   42.8600   24.1170   53.0760 C   0  0  0  0  0  0  0  0  0  0  0  0
   42.4450   24.6250   54.4730 C   0  0  0  0  0  0  0  0  0  0  0  0
   43.1830   22.9060   53.0060 O   0  0  0  0  0  0  0  0  0  0  0  0
   44.6940   21.7730   47.2670 C   0  0  0  0  0  0  0  0  0  0  0  0
  2  1  1  0
  3  1  1  0
 28  1  1  0
  5  2  1  0
  4  3  1  0
  6  3  1  0
  5  4  1  0
 27  5  1  0
  7  6  2  0
  8  6  1  0
  9  8  1  0
 10  9  1  0
 31  9  1  0
 11 10  1  0
 12 11  1  0
 13 12  1  0
 14 13  1  0
 15 14  2  0
 16 14  1  0
 31 17  2  0
 19 18  2  0
 21 18  1  0
 20 19  1  0
 31 19  1  0
 22 20  1  0
 22 21  2  0
 26 21  1  0
 23 22  1  0
 24 23  2  0
 25 24  1  0
 26 25  2  0
 29 28  1  0
 30 28  2  0
A    1
N1
A    2
C54
A    3
C53
A    4
C52
A    5
C51
A    6
CP
A    7
OP
A    8
N
A    9
CA
A   10
CB
A   11
CG
A   12
CD
A   13
NE
A   14
CZ
A   15
NH1
A   16
NH2
A   17
O
A   18
N5
A   19
C5
A   20
S5
A   21
C61
A   22
C62
A   23
C63
A   24
C64
A   25
C65
A   26
C66
A   27
O1
A   28
C1
A   29
C2
A   30
O2
A   31
C
M  END
>  <Id>  (48) 
1NC6_ABB_A_300

>  <ChainId>  (48) 
A

>  <AsymId>  (48) 
D

>  <SeqNum>  (48) 
300

>  <Name>  (48) 
(2S,4R)-1-ACETYL-N-[(1S)-4-[(AMINOIMINOMETHYL)AMINO]-1-(2-BENZOTHIAZOLYLCARBONYL)BUTYL]-4-HYDROXY-2-PYRROLIDINECARBOXAMIDE

>  <SystematicName>  (48) 
(2S,4R)-N-[(2S)-1-(1,3-benzothiazol-2-yl)-5-carbamimidamido-1-oxo-pentan-2-yl]-1-ethanoyl-4-hydroxy-pyrrolidine-2-carboxamide

>  <Synonyms>  (48) 


>  <Type>  (48) 
NON-POLYMER

>  <Formula>  (48) 
C20 H26 N6 O4 S

>  <ObservedFormula>  (48) 
C20 S N6 O4

>  <MolecularWeight>  (48) 
446.523

>  <ModifiedDate>  (48) 
2011-06-04

>  <Parent>  (48) 


>  <OneLetterCode>  (48) 


>  <SubcomponentList>  (48) 


>  <AmbiguousFlag>  (48) 
N

>  <InsertionCode>  (48) 


>  <InstanceId>  (48) 
1NC6_ABB_A_300

>  <ChemCompId>  (48) 
ABB

>  <PdbId>  (48) 
1NC6

>  <ResidueNumber>  (48) 
300

>  <InChI>  (48) 
InChI=1S/C20H26N6O4S/c1-11(27)26-10-12(28)9-15(26)18(30)24-14(6-4-8-23-20(21)22)17(29)19-25-13-5-2-3-7-16(13)31-19/h2-3,5,7,12,14-15,28H,4,6,8-10H2,1H3,(H,24,30)(H4,21,22,23)/t12-,14+,15+/m1/s1

>  <InChIKey>  (48) 
VXDAVYUFYPFGDX-SNPRPXQTSA-N

>  <MissingHeavyAtoms>  (48) 
0

>  <Model>  (48) 
1

>  <AltIds>  (48) 


>  <pKI>  (48) 
8.0

>  <ChemblID>  (48) 
-

>  <standardized_canonical_smiles>  (48) 
CC(=O)N1C[C@H](O)C[C@H]1C(=O)N[C@@H](CCCNC(=N)N)C(=O)c1nc2ccccc2s1

$$$$
4ABB_SO4_A_1246
     RDKit          3D

  5  4  0  0  0  0  0  0  0  0999 V2000
  -12.0710  -11.8510   30.3660 S   0  0  0  0  0  0  0  0  0  0  0  0
  -11.8720  -13.0710   29.6030 O   0  0  0  0  0  0  0  0  0  0  0  0
  -10.8180  -11.2820   30.9410 O   0  0  0  0  0  0  0  0  0  0  0  0
  -13.2090  -11.8280   31.3610 O   0  0  0  0  0  0  0  0  0  0  0  0
  -12.5370  -11.0240   29.1760 O   0  0  0  0  0  0  0  0  0  0  0  0
  2  1  2  0
  3  1  2  0
  4  1  1  0
  5  1  1  0
M  CHG  2   4  -1   5  -1
A    1
S
A    2
O1
A    3
O2
A    4
O3
A    5
O4
M  END
>  <Id>  (49) 
4ABB_SO4_A_1246

>  <ChainId>  (49) 
A

>  <AsymId>  (49) 
B

>  <SeqNum>  (49) 
1246

>  <Name>  (49) 
SULFATE ION

>  <SystematicName>  (49) 
sulfate

>  <Synonyms>  (49) 


>  <Type>  (49) 
NON-POLYMER

>  <Formula>  (49) 
O4 S

>  <ObservedFormula>  (49) 
S O4

>  <MolecularWeight>  (49) 
96.063

>  <ModifiedDate>  (49) 
2011-06-04

>  <Parent>  (49) 


>  <OneLetterCode>  (49) 


>  <SubcomponentList>  (49) 


>  <AmbiguousFlag>  (49) 
N

>  <InsertionCode>  (49) 


>  <InstanceId>  (49) 
4ABB_SO4_A_1246

>  <ChemCompId>  (49) 
SO4

>  <PdbId>  (49) 
4ABB

>  <ResidueNumber>  (49) 
1246

>  <InChI>  (49) 
InChI=1S/H2O4S/c1-5(2,3)4/h(H2,1,2,3,4)/p-2

>  <InChIKey>  (49) 
QAOWNCQODCNURD-UHFFFAOYSA-L

>  <SMILES>  (49) 
[O-]S(=O)(=O)[O-]

>  <MissingHeavyAtoms>  (49) 
0

>  <Model>  (49) 
1

>  <AltIds>  (49) 


>  <pKI>  (49) 
8.0

>  <ChemblID>  (49) 
-

>  <standardized_canonical_smiles>  (49) 
CC(=O)N1C[C@H](O)C[C@H]1C(=O)N[C@@H](CCCNC(=N)N)C(=O)c1nc2ccccc2s1

$$$$
1Y3V_UIR_A_1994
     RDKit          3D

 34 40  0  0  0  0  0  0  0  0999 V2000
   -5.0050    9.5760   19.7650 N   0  0  0  0  0  0  0  0  0  0  0  0
   -3.7030    9.3060   19.6770 C   0  0  0  0  0  0  0  0  0  0  0  0
   -3.1170    8.0720   20.1150 C   0  0  0  0  0  0  0  0  0  0  0  0
   -3.8920    7.0540   20.7060 C   0  0  0  0  0  0  0  0  0  0  0  0
   -3.2920    5.8550   21.1510 C   0  0  0  0  0  0  0  0  0  0  0  0
   -1.9090    5.6490   21.0040 C   0  0  0  0  0  0  0  0  0  0  0  0
   -1.1910    4.4450   21.5740 C   0  0  0  0  0  0  0  0  0  0  0  0
   -2.1760    3.3050   21.5640 N   0  0  0  0  0  0  0  0  0  0  0  0
   -2.4460    2.8260   20.1660 C   0  0  0  0  0  0  0  0  0  0  0  0
   -1.5110    1.6200   19.9570 C   0  0  0  0  0  0  0  0  0  0  0  0
   -0.7340    1.3720   21.2340 C   0  0  0  0  0  0  0  0  0  0  0  0
   -1.4180    2.2270   22.3140 C   0  0  0  0  0  0  0  0  0  0  0  0
   -0.3090    2.9280   23.1680 C   0  0  0  0  0  0  0  0  0  0  0  0
    0.4940    2.7300   25.7200 C   0  0  0  0  0  0  0  0  0  0  0  0
   -0.6240    2.6950   24.6950 C   0  0  0  0  0  0  0  0  0  0  0  0
    0.2860    1.8040   26.9260 C   0  0  0  0  0  0  0  0  0  0  0  0
    1.2960    1.4090   25.8160 C   0  0  0  0  0  0  0  0  0  0  0  0
   -1.6440    3.6600   24.9970 N   0  0  0  0  0  0  0  0  0  0  0  0
   -1.7000    4.6950   24.0870 C   0  0  0  0  0  0  0  0  0  0  0  0
   -2.5800    5.6260   24.1040 O   0  0  0  0  0  0  0  0  0  0  0  0
   -0.6290    4.4520   23.0030 C   0  0  0  0  0  0  0  0  0  0  0  0
   -2.7190    3.6930   26.0810 C   0  0  0  0  0  0  0  0  0  0  0  0
   -2.5080    4.8160   27.1010 C   0  0  0  0  0  0  0  0  0  0  0  0
   -1.3270    4.8670   27.8580 C   0  0  0  0  0  0  0  0  0  0  0  0
   -1.2080    5.9140   28.8680 C   0  0  0  0  0  0  0  0  0  0  0  0
   -0.1330    6.1430   29.7330 O   0  0  0  0  0  0  0  0  0  0  0  0
   -0.5430    7.3060   30.5080 C   0  0  0  0  0  0  0  0  0  0  0  0
   -1.8750    7.7250   30.0780 O   0  0  0  0  0  0  0  0  0  0  0  0
   -2.2380    6.8470   29.0790 C   0  0  0  0  0  0  0  0  0  0  0  0
   -3.4200    6.7870   28.3330 C   0  0  0  0  0  0  0  0  0  0  0  0
   -3.5400    5.7810   27.3440 C   0  0  0  0  0  0  0  0  0  0  0  0
   -1.1200    6.6400   20.3720 C   0  0  0  0  0  0  0  0  0  0  0  0
   -1.7320    7.8220   19.9390 C   0  0  0  0  0  0  0  0  0  0  0  0
   -2.9870   10.3480   19.1140 N   0  0  0  0  0  0  0  0  0  0  0  0
  2  1  1  0
  3  2  1  0
 34  2  2  0
  4  3  2  0
 33  3  1  0
  5  4  1  0
  6  5  2  0
  7  6  1  0
 32  6  1  0
  8  7  1  0
 21  7  1  0
  9  8  1  0
 12  8  1  0
 10  9  1  0
 11 10  1  0
 12 11  1  0
 13 12  1  0
 15 13  1  0
 21 13  1  0
 15 14  1  0
 16 14  1  0
 17 14  1  0
 18 15  1  0
 17 16  1  0
 19 18  1  0
 22 18  1  0
 20 19  2  0
 21 19  1  0
 23 22  1  0
 24 23  2  0
 31 23  1  0
 25 24  1  0
 26 25  1  0
 29 25  2  0
 27 26  1  0
 28 27  1  0
 29 28  1  0
 30 29  1  0
 31 30  2  0
 33 32  2  0
A    1
N1
A    2
C3
A    3
C4
A    4
C9
A    5
C8
A    6
C7
A    7
C10
A    8
N11
A    9
C12
A   10
C13
A   11
C14
A   12
C15
A   13
C16
A   14
C18
A   15
C17
A   16
C42
A   17
C41
A   18
N19
A   19
C20
A   20
O21
A   21
C22
A   22
C23
A   23
C24
A   24
C25
A   25
C26
A   26
O27
A   27
C28
A   28
O29
A   29
C30
A   30
C31
A   31
C32
A   32
C6
A   33
C5
A   34
N2
M  END
>  <Id>  (50) 
1Y3V_UIR_A_1994

>  <ChainId>  (50) 
A

>  <AsymId>  (50) 
C

>  <SeqNum>  (50) 
1994

>  <Name>  (50) 
(1R,3AS,4R,8AS,8BR)-4-(2-BENZO[1,3]DIOXOL-5-YL-1-CYCLOPROPYL-3-OXO-DECAHYDRO-PYRROLO[3,4-A]PYRROLIZIN-4-YL)-BENZAMIDINE

>  <SystematicName>  (50) 
4-[(1R,3aS,4R,5S,8aS,8bR)-2-(1,3-benzodioxol-5-ylmethyl)-1-cyclopropyl-3-oxo-1,3a,4,6,7,8,8a,8b-octahydropyrrolo[3,4-a]pyrrolizin-4-yl]benzenecarboximidamide

>  <Synonyms>  (50) 


>  <Type>  (50) 
NON-POLYMER

>  <Formula>  (50) 
C27 H30 N4 O3

>  <ObservedFormula>  (50) 
C27 N4 O3

>  <MolecularWeight>  (50) 
458.552

>  <ModifiedDate>  (50) 
2011-06-04

>  <Parent>  (50) 


>  <OneLetterCode>  (50) 


>  <SubcomponentList>  (50) 


>  <AmbiguousFlag>  (50) 
N

>  <InsertionCode>  (50) 


>  <InstanceId>  (50) 
1Y3V_UIR_A_1994

>  <ChemCompId>  (50) 
UIR

>  <PdbId>  (50) 
1Y3V

>  <ResidueNumber>  (50) 
1994

>  <InChI>  (50) 
InChI=1S/C27H30N4O3/c28-26(29)18-8-6-17(7-9-18)25-23-22(19-2-1-11-30(19)25)24(16-4-5-16)31(27(23)32)13-15-3-10-20-21(12-15)34-14-33-20/h3,6-10,12,16,19,22-25H,1-2,4-5,11,13-14H2,(H3,28,29)/t19-,22-,23-,24+,25-/m0/s1

>  <InChIKey>  (50) 
XYMBMAVAMICSMV-FTSNLURZSA-N

>  <SMILES>  (50) 
c1cc(ccc1[C@H]2[C@@H]3[C@H]([C@H]4[N@@]2CCC4)[C@H](N(C3=O)Cc5ccc6c(c5)OCO6)C7CC7)C(=N)N

>  <MissingHeavyAtoms>  (50) 
0

>  <Model>  (50) 
1

>  <AltIds>  (50) 


>  <pKI>  (50) 
5.64

>  <ChemblID>  (50) 
-

>  <standardized_canonical_smiles>  (50) 
N=C(N)c1ccc([C@H]2[C@H]3C(=O)N(Cc4ccc5c(c4)OCO5)[C@H](C4CC4)[C@H]3[C@@H]3CCCN32)cc1

$$$$
1Y3Y_UIR_A_2222
     RDKit          3D

 22 25  0  0  0  0  0  0  0  0999 V2000
   46.7820   18.5210   54.8030 N   0  0  0  0  0  0  0  0  0  0  0  0
   45.9170   18.3890   53.8160 C   0  0  0  0  0  0  0  0  0  0  0  0
   45.4140   19.4450   53.0080 C   0  0  0  0  0  0  0  0  0  0  0  0
   45.8000   20.7750   53.1630 C   0  0  0  0  0  0  0  0  0  0  0  0
   45.2670   21.7530   52.3080 C   0  0  0  0  0  0  0  0  0  0  0  0
   44.3600   21.3990   51.3070 C   0  0  0  0  0  0  0  0  0  0  0  0
   43.7650   22.4440   50.3990 C   0  0  0  0  0  0  0  0  0  0  0  0
   44.7350   23.5840   50.1970 N   0  0  0  0  0  0  0  0  0  0  0  0
   45.8270   23.2350   49.2340 C   0  0  0  0  0  0  0  0  0  0  0  0
   45.3040   23.6120   47.8340 C   0  0  0  0  0  0  0  0  0  0  0  0
   43.9870   24.3060   48.0080 C   0  0  0  0  0  0  0  0  0  0  0  0
   43.8670   24.6200   49.5100 C   0  0  0  0  0  0  0  0  0  0  0  0
   42.3910   24.3430   49.9370 C   0  0  0  0  0  0  0  0  0  0  0  0
   41.8250   25.4680   50.8640 C   0  0  0  0  0  0  0  0  0  0  0  0
   42.3560   25.1290   52.1740 N   0  0  0  0  0  0  0  0  0  0  0  0
   42.6810   23.7970   52.2790 C   0  0  0  0  0  0  0  0  0  0  0  0
   43.1490   23.2690   53.3220 O   0  0  0  0  0  0  0  0  0  0  0  0
   42.4790   23.1340   50.9000 C   0  0  0  0  0  0  0  0  0  0  0  0
   41.8670   25.8700   53.3930 C   0  0  0  0  0  0  0  0  0  0  0  0
   43.9760   20.0560   51.1520 C   0  0  0  0  0  0  0  0  0  0  0  0
   44.5070   19.0900   51.9830 C   0  0  0  0  0  0  0  0  0  0  0  0
   45.4850   17.1240   53.5910 N   0  0  0  0  0  0  0  0  0  0  0  0
  2  1  1  0
  3  2  1  0
 22  2  2  0
  4  3  2  0
 21  3  1  0
  5  4  1  0
  6  5  2  0
  7  6  1  0
 20  6  1  0
  8  7  1  0
 18  7  1  0
  9  8  1  0
 12  8  1  0
 10  9  1  0
 11 10  1  0
 12 11  1  0
 13 12  1  0
 14 13  1  0
 18 13  1  0
 15 14  1  0
 16 15  1  0
 19 15  1  0
 17 16  2  0
 18 16  1  0
 21 20  2  0
A    1
N1
A    2
C3
A    3
C4
A    4
C9
A    5
C8
A    6
C7
A    7
C10
A    8
N11
A    9
C12
A   10
C13
A   11
C14
A   12
C15
A   13
C16
A   14
C17
A   15
N19
A   16
C20
A   17
O21
A   18
C22
A   19
C23
A   20
C6
A   21
C5
A   22
N2
M  END
>  <Id>  (51) 
1Y3Y_UIR_A_2222

>  <ChainId>  (51) 
A

>  <AsymId>  (51) 
C

>  <SeqNum>  (51) 
2222

>  <Name>  (51) 
(1R,3AS,4R,8AS,8BR)-4-(2-BENZO[1,3]DIOXOL-5-YL-1-CYCLOPROPYL-3-OXO-DECAHYDRO-PYRROLO[3,4-A]PYRROLIZIN-4-YL)-BENZAMIDINE

>  <SystematicName>  (51) 
4-[(1R,3aS,4R,5S,8aS,8bR)-2-(1,3-benzodioxol-5-ylmethyl)-1-cyclopropyl-3-oxo-1,3a,4,6,7,8,8a,8b-octahydropyrrolo[3,4-a]pyrrolizin-4-yl]benzenecarboximidamide

>  <Synonyms>  (51) 


>  <Type>  (51) 
NON-POLYMER

>  <Formula>  (51) 
C27 H30 N4 O3

>  <ObservedFormula>  (51) 
C17 N4 O

>  <MolecularWeight>  (51) 
458.552

>  <ModifiedDate>  (51) 
2011-06-04

>  <Parent>  (51) 


>  <OneLetterCode>  (51) 


>  <SubcomponentList>  (51) 


>  <AmbiguousFlag>  (51) 
N

>  <InsertionCode>  (51) 


>  <InstanceId>  (51) 
1Y3Y_UIR_A_2222

>  <ChemCompId>  (51) 
UIR

>  <PdbId>  (51) 
1Y3Y

>  <ResidueNumber>  (51) 
2222

>  <InChI>  (51) 
InChI=1S/C27H30N4O3/c28-26(29)18-8-6-17(7-9-18)25-23-22(19-2-1-11-30(19)25)24(16-4-5-16)31(27(23)32)13-15-3-10-20-21(12-15)34-14-33-20/h3,6-10,12,16,19,22-25H,1-2,4-5,11,13-14H2,(H3,28,29)/t19-,22-,23-,24+,25-/m0/s1

>  <InChIKey>  (51) 
XYMBMAVAMICSMV-FTSNLURZSA-N

>  <SMILES>  (51) 
c1cc(ccc1[C@H]2[C@@H]3[C@H]([C@H]4[N@@]2CCC4)[C@H](N(C3=O)Cc5ccc6c(c5)OCO6)C7CC7)C(=N)N

>  <MissingHeavyAtoms>  (51) 
12

>  <Model>  (51) 
1

>  <AltIds>  (51) 


>  <pKI>  (51) 
5.64

>  <ChemblID>  (51) 
-

>  <standardized_canonical_smiles>  (51) 
N=C(N)c1ccc([C@H]2[C@H]3C(=O)N(Cc4ccc5c(c4)OCO5)[C@H](C4CC4)[C@H]3[C@@H]3CCCN32)cc1

$$$$
1QB1_974_A_300
     RDKit          3D

 41 45  0  0  0  0  0  0  0  0999 V2000
   11.7250   36.6150   12.0780 O   0  0  0  0  0  0  0  0  0  0  0  0
   12.5520   36.1640   11.0990 C   0  0  0  0  0  0  0  0  0  0  0  0
   12.0470   35.9790    9.7920 C   0  0  0  0  0  0  0  0  0  0  0  0
   12.8580   35.5610    8.7300 C   0  0  0  0  0  0  0  0  0  0  0  0
   14.2070   35.2710    8.9650 C   0  0  0  0  0  0  0  0  0  0  0  0
   14.7550   35.4300   10.2390 C   0  0  0  0  0  0  0  0  0  0  0  0
   13.9470   35.8860   11.3090 C   0  0  0  0  0  0  0  0  0  0  0  0
   14.5420   36.0350   12.5290 O   0  0  0  0  0  0  0  0  0  0  0  0
   12.2060   35.3880    7.4950 C   0  0  0  0  0  0  0  0  0  0  0  0
   10.9110   35.6540    7.2960 N   0  0  0  0  0  0  0  0  0  0  0  0
   12.7900   34.9120    6.4050 N   0  0  0  0  0  0  0  0  0  0  0  0
   10.9220   37.7630   13.9970 C   0  0  0  0  0  0  0  0  0  0  0  0
   10.3100   36.7200   14.5010 F   0  0  0  0  0  0  0  0  0  0  0  0
   10.8680   39.0180   14.6700 C   0  0  0  0  0  0  0  0  0  0  0  0
   11.5260   40.1160   14.0860 C   0  0  0  0  0  0  0  0  0  0  0  0
   11.5090   41.2760   14.6870 F   0  0  0  0  0  0  0  0  0  0  0  0
   12.2030   39.9420   12.8720 C   0  0  0  0  0  0  0  0  0  0  0  0
   12.2390   38.7440   12.2520 N   0  0  0  0  0  0  0  0  0  0  0  0
   11.6170   37.6720   12.7970 C   0  0  0  0  0  0  0  0  0  0  0  0
   10.1960   39.1620   15.8440 N   0  0  0  0  0  0  0  0  0  0  0  0
   10.2260   38.0680   16.8050 C   0  0  0  0  0  0  0  0  0  0  0  0
   10.4450   38.6550   18.2360 C   0  0  0  0  0  0  0  0  0  0  0  0
    9.2830   39.6700   18.5530 C   0  0  0  0  0  0  0  0  0  0  0  0
    9.3240   40.8200   17.4830 C   0  0  0  0  0  0  0  0  0  0  0  0
    9.2500   40.2340   16.0490 C   0  0  0  0  0  0  0  0  0  0  0  0
   10.5980   37.6510   19.3160 C   0  0  0  0  0  0  0  0  0  0  0  0
    9.5750   37.3810   20.0060 O   0  0  0  0  0  0  0  0  0  0  0  0
   11.7120   37.4510   19.8750 O   0  0  0  0  0  0  0  0  0  0  0  0
   12.8780   40.8850   12.2280 O   0  0  0  0  0  0  0  0  0  0  0  0
   12.5560   42.1160   11.8290 C   0  0  0  0  0  0  0  0  0  0  0  0
   11.2740   42.3630   11.3400 C   0  0  0  0  0  0  0  0  0  0  0  0
   10.9360   43.6620   10.9170 C   0  0  0  0  0  0  0  0  0  0  0  0
   11.9030   44.6820   10.9950 C   0  0  0  0  0  0  0  0  0  0  0  0
   13.1980   44.4240   11.4880 C   0  0  0  0  0  0  0  0  0  0  0  0
   13.5220   43.1330   11.9250 C   0  0  0  0  0  0  0  0  0  0  0  0
   14.1370   45.4670   11.6050 C   0  0  0  0  0  0  0  0  0  0  0  0
   14.5570   46.3530   10.6670 N   0  0  0  0  0  0  0  0  0  0  0  0
   14.1670   46.4610    9.2820 C   0  0  0  0  0  0  0  0  0  0  0  0
   14.7450   45.7120   12.7870 N   0  0  0  0  0  0  0  0  0  0  0  0
   15.4900   47.2540   11.2460 C   0  0  0  0  0  0  0  0  0  0  0  0
   15.6150   46.8110   12.7190 C   0  0  0  0  0  0  0  0  0  0  0  0
  2  1  1  0
 19  1  1  0
  3  2  2  0
  7  2  1  0
  4  3  1  0
  5  4  2  0
  9  4  1  0
  6  5  1  0
  7  6  2  0
  8  7  1  0
 10  9  2  0
 11  9  1  0
 13 12  1  0
 14 12  2  0
 19 12  1  0
 15 14  1  0
 20 14  1  0
 16 15  1  0
 17 15  2  0
 18 17  1  0
 29 17  1  0
 19 18  2  0
 21 20  1  0
 25 20  1  0
 22 21  1  0
 23 22  1  0
 26 22  1  0
 24 23  1  0
 25 24  1  0
 27 26  1  0
 28 26  2  0
 30 29  1  0
 31 30  2  0
 35 30  1  0
 32 31  1  0
 33 32  2  0
 34 33  1  0
 35 34  2  0
 36 34  1  0
 37 36  1  0
 39 36  2  0
 38 37  1  0
 40 37  1  0
 41 39  1  0
 41 40  2  0
M  CHG  1  18   1
A    1
O1
A    2
C11
A    3
C12
A    4
C13
A    5
C14
A    6
C15
A    7
C16
A    8
O11
A    9
C17
A   10
N11
A   11
N12
A   12
C1
A   13
F1
A   14
C2
A   15
C3
A   16
F2
A   17
C4
A   18
N5
A   19
C6
A   20
N31
A   21
C32
A   22
C33
A   23
C34
A   24
C35
A   25
C36
A   26
C37
A   27
O31
A   28
O32
A   29
O2
A   30
C21
A   31
C22
A   32
C23
A   33
C24
A   34
C25
A   35
C26
A   36
C27
A   37
N21
A   38
C30
A   39
N22
A   40
C28
A   41
C29
M  END
>  <Id>  (52) 
1QB1_974_A_300

>  <ChainId>  (52) 
A

>  <AsymId>  (52) 
C

>  <SeqNum>  (52) 
300

>  <Name>  (52) 
1-[2-[5-[AMINO(IMINO)METHYL]-2-HYDROXYPHENOXY]-6-[3-(4,5-DIHYDRO-1-METHYL-1H-IMIDAZOL-2-YL)PHENOXY] PYRIDIN-4-YL]PIPERIDINE-3-CARBOXYLIC ACID

>  <SystematicName>  (52) 
(3R)-1-[2-(5-carbamimidoyl-2-hydroxy-phenoxy)-3,5-difluoro-6-[3-(1-methylimidazol-2-yl)phenoxy]pyridin-1-ium-4-yl]piperidine-3-carboxylic acid

>  <Synonyms>  (52) 
ZK-806974

>  <Type>  (52) 
NON-POLYMER

>  <Formula>  (52) 
C28 H27 F2 N6 O5

>  <ObservedFormula>  (52) 
C28 F2 N6 O5

>  <MolecularWeight>  (52) 
565.548

>  <ModifiedDate>  (52) 
2011-06-04

>  <Parent>  (52) 


>  <OneLetterCode>  (52) 


>  <SubcomponentList>  (52) 


>  <AmbiguousFlag>  (52) 
N

>  <InsertionCode>  (52) 


>  <InstanceId>  (52) 
1QB1_974_A_300

>  <ChemCompId>  (52) 
974

>  <PdbId>  (52) 
1QB1

>  <ResidueNumber>  (52) 
300

>  <InChI>  (52) 
InChI=1S/C28H26F2N6O5/c1-35-11-9-33-25(35)16-4-2-6-18(12-16)40-26-21(29)23(36-10-3-5-17(14-36)28(38)39)22(30)27(34-26)41-20-13-15(24(31)32)7-8-19(20)37/h2,4,6-9,11-13,17,37H,3,5,10,14H2,1H3,(H3,31,32)(H,38,39)/p+1/t17-/m1/s1

>  <InChIKey>  (52) 
PSJQZXADHMZXED-QGZVFWFLSA-O

>  <SMILES>  (52) 
Cn1ccnc1c2cccc(c2)Oc3c(c(c(c([nH+]3)Oc4cc(ccc4O)C(=N)N)F)N5CCC[C@H](C5)C(=O)O)F

>  <MissingHeavyAtoms>  (52) 
0

>  <Model>  (52) 
1

>  <AltIds>  (52) 


>  <pKI>  (52) 
6.77

>  <ChemblID>  (52) 
-

>  <standardized_canonical_smiles>  (52) 
Cn1ccnc1-c1cccc(Oc2[nH+]c(Oc3cc(C(=N)N)ccc3O)c(F)c(N3CCC[C@@H](C(=O)O)C3)c2F)c1

$$$$
1LQE_IMA_A_250
     RDKit          3D

 33 36  0  0  0  0  0  0  0  0999 V2000
   19.5150    6.9410   32.1460 C   0  0  0  0  0  0  0  0  0  0  0  0
   19.5270    7.1310   30.7400 C   0  0  0  0  0  0  0  0  0  0  0  0
   20.3170    6.3180   29.9190 C   0  0  0  0  0  0  0  0  0  0  0  0
   21.1170    5.3200   30.5040 C   0  0  0  0  0  0  0  0  0  0  0  0
   21.1490    5.1150   31.9240 C   0  0  0  0  0  0  0  0  0  0  0  0
   20.3250    5.9390   32.7460 C   0  0  0  0  0  0  0  0  0  0  0  0
   22.0850    4.0790   32.1910 C   0  0  0  0  0  0  0  0  0  0  0  0
   21.9960    4.4270   29.9650 N   0  0  0  0  0  0  0  0  0  0  0  0
   22.5900    3.6990   30.9250 C   0  0  0  0  0  0  0  0  0  0  0  0
   22.1110    4.1210   28.5670 C   0  0  0  0  0  0  0  0  0  0  0  0
   23.6260    2.7910   30.6180 C   0  0  0  0  0  0  0  0  0  0  0  0
   24.8580    2.9790   31.1060 N   0  0  0  0  0  0  0  0  0  0  0  0
   25.7630    1.8360   31.0880 C   0  0  0  0  0  0  0  0  0  0  0  0
   26.9050    2.0080   30.1040 C   0  0  0  0  0  0  0  0  0  0  0  0
   23.4660    1.7930   29.6200 O   0  0  0  0  0  0  0  0  0  0  0  0
   20.9470    3.3010   28.1190 C   0  0  0  0  0  0  0  0  0  0  0  0
   19.5690    3.0770   26.1630 C   0  0  0  0  0  0  0  0  0  0  0  0
   20.5050    3.7710   26.9000 C   0  0  0  0  0  0  0  0  0  0  0  0
   20.3720    2.1460   28.7280 C   0  0  0  0  0  0  0  0  0  0  0  0
   19.4040    1.4170   27.9680 C   0  0  0  0  0  0  0  0  0  0  0  0
   19.0190    1.8670   26.6690 C   0  0  0  0  0  0  0  0  0  0  0  0
   19.3260    3.7140   24.8750 C   0  0  0  0  0  0  0  0  0  0  0  0
   19.5020    5.0390   24.7510 N   0  0  0  0  0  0  0  0  0  0  0  0
   18.9960    2.9600   23.8200 N   0  0  0  0  0  0  0  0  0  0  0  0
   28.0690    3.0930   28.2700 C   0  0  0  0  0  0  0  0  0  0  0  0
   29.1510    2.1580   28.3840 C   0  0  0  0  0  0  0  0  0  0  0  0
   29.0950    1.1910   29.4200 C   0  0  0  0  0  0  0  0  0  0  0  0
   27.9710    1.1070   30.2490 C   0  0  0  0  0  0  0  0  0  0  0  0
   26.9470    3.0220   29.1230 C   0  0  0  0  0  0  0  0  0  0  0  0
   30.2840    2.1270   27.4630 N   0  0  0  0  0  0  0  0  0  0  0  0
   30.3200    0.8860   26.6670 C   0  0  0  0  0  0  0  0  0  0  0  0
   31.5800    2.2060   28.1560 C   0  0  0  0  0  0  0  0  0  0  0  0
   30.3550    3.2500   26.5230 C   0  0  0  0  0  0  0  0  0  0  0  0
  2  1  2  0
  6  1  1  0
  3  2  1  0
  4  3  2  0
  5  4  1  0
  8  4  1  0
  6  5  2  0
  7  5  1  0
  9  7  2  0
  9  8  1  0
 10  8  1  0
 11  9  1  0
 16 10  1  0
 12 11  1  0
 15 11  2  0
 13 12  1  0
 14 13  1  0
 28 14  1  0
 29 14  2  0
 18 16  1  0
 19 16  2  0
 18 17  2  0
 21 17  1  0
 22 17  1  0
 20 19  1  0
 21 20  2  0
 23 22  1  0
 24 22  2  0
 26 25  2  0
 29 25  1  0
 27 26  1  0
 30 26  1  0
 28 27  2  0
 31 30  1  0
 32 30  1  0
 33 30  1  0
M  CHG  1  30   1
A    1
C11
A    2
C12
A    3
C13
A    4
C14
A    5
C15
A    6
C16
A    7
C17
A    8
N18
A    9
C19
A   10
C20
A   11
C21
A   12
N22
A   13
C23
A   14
C24
A   15
O27
A   16
C28
A   17
C31
A   18
C32
A   19
C33
A   20
C34
A   21
C35
A   22
C36
A   23
N37
A   24
N38
A   25
C39
A   26
C40
A   27
C41
A   28
C42
A   29
C43
A   30
N44
A   31
C45
A   32
C49
A   33
C53
M  END
>  <Id>  (53) 
1LQE_IMA_A_250

>  <ChainId>  (53) 
A

>  <AsymId>  (53) 
D

>  <SeqNum>  (53) 
250

>  <Name>  (53) 
[4-({[5-BENZYLOXY-1-(3-CARBAMIMIDOYL-BENZYL)-1H-INDOLE-2-CARBONYL]-AMINO}-METHYL)-PHENYL]-TRIMETHYL-AMMONIUM

>  <SystematicName>  (53) 
[4-[[[1-[(3-carbamimidoylphenyl)methyl]-5-phenylmethoxy-indol-2-yl]carbonylamino]methyl]phenyl]-trimethyl-azanium

>  <Synonyms>  (53) 


>  <Type>  (53) 
NON-POLYMER

>  <Formula>  (53) 
C34 H36 N5 O2

>  <ObservedFormula>  (53) 
C27 N5 O

>  <MolecularWeight>  (53) 
546.682

>  <ModifiedDate>  (53) 
2011-06-04

>  <Parent>  (53) 


>  <OneLetterCode>  (53) 


>  <SubcomponentList>  (53) 


>  <AmbiguousFlag>  (53) 
N

>  <InsertionCode>  (53) 


>  <InstanceId>  (53) 
1LQE_IMA_A_250

>  <ChemCompId>  (53) 
IMA

>  <PdbId>  (53) 
1LQE

>  <ResidueNumber>  (53) 
250

>  <InChI>  (53) 
InChI=1S/C34H35N5O2/c1-39(2,3)29-14-12-24(13-15-29)21-37-34(40)32-20-28-19-30(41-23-25-8-5-4-6-9-25)16-17-31(28)38(32)22-26-10-7-11-27(18-26)33(35)36/h4-20H,21-23H2,1-3H3,(H3-,35,36,37,40)/p+1

>  <InChIKey>  (53) 
UFKJQTGPBFWMGT-UHFFFAOYSA-O

>  <SMILES>  (53) 
C[N+](C)(C)c1ccc(cc1)CNC(=O)c2cc3cc(ccc3n2Cc4cccc(c4)C(=N)N)OCc5ccccc5

>  <MissingHeavyAtoms>  (53) 
8

>  <Model>  (53) 
1

>  <AltIds>  (53) 


>  <pKI>  (53) 
5.82

>  <ChemblID>  (53) 
-

>  <standardized_canonical_smiles>  (53) 
C[N+](C)(C)c1ccc(CNC(=O)c2cc3ccccc3n2Cc2cccc(C(=N)N)c2)cc1

$$$$
1O2T_783_A_246
     RDKit          3D

 27 30  0  0  0  0  0  0  0  0999 V2000
   44.2780   -3.1340   26.0590 C   0  0  0  0  0  0  0  0  0  0  0  0
   44.6320   -1.7640   26.1090 C   0  0  0  0  0  0  0  0  0  0  0  0
   44.5840   -1.0180   27.2880 C   0  0  0  0  0  0  0  0  0  0  0  0
   44.1730   -1.6670   28.4050 C   0  0  0  0  0  0  0  0  0  0  0  0
   43.8190   -2.9600   28.4280 C   0  0  0  0  0  0  0  0  0  0  0  0
   43.8590   -3.7220   27.2640 C   0  0  0  0  0  0  0  0  0  0  0  0
   44.3490   -3.8640   24.8650 C   0  0  0  0  0  0  0  0  0  0  0  0
   43.9970   -5.1330   24.8270 N   0  0  0  0  0  0  0  0  0  0  0  0
   44.7820   -3.2510   23.7920 N   0  0  0  0  0  0  0  0  0  0  0  0
   44.0500   -1.2020   29.6330 N   0  0  0  0  0  0  0  0  0  0  0  0
   43.3960   -3.2290   29.6720 C   0  0  0  0  0  0  0  0  0  0  0  0
   43.6260   -2.1350   30.4700 C   0  0  0  0  0  0  0  0  0  0  0  0
   43.3930   -1.8930   31.8160 C   0  0  0  0  0  0  0  0  0  0  0  0
   43.0830   -2.9860   32.6260 C   0  0  0  0  0  0  0  0  0  0  0  0
   42.8380   -2.8490   33.9750 C   0  0  0  0  0  0  0  0  0  0  0  0
   42.5180   -3.9370   34.7750 O   0  0  0  0  0  0  0  0  0  0  0  0
   41.1470   -3.9560   35.1580 C   0  0  0  0  0  0  0  0  0  0  0  0
   42.9000   -1.6070   34.5350 C   0  0  0  0  0  0  0  0  0  0  0  0
   43.2020   -0.4760   33.8010 C   0  0  0  0  0  0  0  0  0  0  0  0
   43.4470   -0.6200   32.4130 C   0  0  0  0  0  0  0  0  0  0  0  0
   43.7190    0.4550   31.5840 O   0  0  0  0  0  0  0  0  0  0  0  0
   43.2590    0.7010   34.5330 C   0  0  0  0  0  0  0  0  0  0  0  0
   44.4190    1.4820   34.5830 C   0  0  0  0  0  0  0  0  0  0  0  0
   44.4820    2.6380   35.3460 C   0  0  0  0  0  0  0  0  0  0  0  0
   43.3820    3.0290   36.0880 C   0  0  0  0  0  0  0  0  0  0  0  0
   42.2150    2.2800   36.0650 C   0  0  0  0  0  0  0  0  0  0  0  0
   42.1600    1.1250   35.2950 C   0  0  0  0  0  0  0  0  0  0  0  0
  2  1  2  0
  6  1  1  0
  7  1  1  0
  3  2  1  0
  4  3  2  0
  5  4  1  0
 10  4  1  0
  6  5  2  0
 11  5  1  0
  8  7  1  0
  9  7  2  0
 12 10  1  0
 12 11  2  0
 13 12  1  0
 14 13  2  0
 20 13  1  0
 15 14  1  0
 16 15  1  0
 18 15  2  0
 17 16  1  0
 19 18  1  0
 20 19  2  0
 22 19  1  0
 21 20  1  0
 23 22  2  0
 27 22  1  0
 24 23  1  0
 25 24  2  0
 26 25  1  0
 27 26  2  0
M  CHG  2   9   1  21  -1
A    1
C1
A    2
C2
A    3
C3
A    4
C4
A    5
C5
A    6
C6
A    7
C7
A    8
N1
A    9
N2
A   10
N3
A   11
CN4
A   12
C8
A   13
C1'
A   14
C2'
A   15
C3'
A   16
O3'
A   17
C3X
A   18
C4'
A   19
C5'
A   20
C6'
A   21
O6'
A   22
C1B
A   23
C2B
A   24
C3B
A   25
C4B
A   26
C5B
A   27
C6B
M  END
>  <Id>  (54) 
1O2T_783_A_246

>  <ChainId>  (54) 
A

>  <AsymId>  (54) 
D

>  <SeqNum>  (54) 
246

>  <Name>  (54) 
3-{5-[AMINO(IMINIO)METHYL]-1H-INDOL-2-YL}-5-METHOXY-1,1'-BIPHENYL-2-OLATE

>  <SystematicName>  (54) 
2-[5-(amino-azaniumylidene-methyl)-1H-indol-2-yl]-4-methoxy-6-phenyl-phenolate

>  <Synonyms>  (54) 
CRA_14783

>  <Type>  (54) 
NON-POLYMER

>  <Formula>  (54) 
C22 H19 N3 O2

>  <ObservedFormula>  (54) 
C22 N3 O2

>  <MolecularWeight>  (54) 
357.405

>  <ModifiedDate>  (54) 
2011-06-04

>  <Parent>  (54) 


>  <OneLetterCode>  (54) 


>  <SubcomponentList>  (54) 


>  <AmbiguousFlag>  (54) 
N

>  <InsertionCode>  (54) 


>  <InstanceId>  (54) 
1O2T_783_A_246

>  <ChemCompId>  (54) 
783

>  <PdbId>  (54) 
1O2T

>  <ResidueNumber>  (54) 
246

>  <InChI>  (54) 
InChI=1S/C22H19N3O2/c1-27-16-11-17(13-5-3-2-4-6-13)21(26)18(12-16)20-10-15-9-14(22(23)24)7-8-19(15)25-20/h2-12,25-26H,1H3,(H3,23,24)

>  <InChIKey>  (54) 
MINVOLKUPZPDNX-UHFFFAOYSA-N

>  <MissingHeavyAtoms>  (54) 
0

>  <Model>  (54) 
1

>  <AltIds>  (54) 


>  <pKI>  (54) 
7.85

>  <ChemblID>  (54) 
-

>  <standardized_canonical_smiles>  (54) 
COc1cc(-c2ccccc2)c([O-])c(-c2cc3cc(C(N)=[NH2+])ccc3[nH]2)c1

$$$$
4YTA_BEN_A_312
     RDKit          3D

  9  9  0  0  0  0  0  0  0  0999 V2000
   -1.8250  -14.8810  -17.0090 C   0  0  0  0  0  0  0  0  0  0  0  0
   -2.1730  -13.5660  -16.8660 C   0  0  0  0  0  0  0  0  0  0  0  0
   -1.8770  -12.8890  -15.6990 C   0  0  0  0  0  0  0  0  0  0  0  0
   -1.2510  -13.4770  -14.6230 C   0  0  0  0  0  0  0  0  0  0  0  0
   -0.9170  -14.7890  -14.7460 C   0  0  0  0  0  0  0  0  0  0  0  0
   -1.2020  -15.4670  -15.9240 C   0  0  0  0  0  0  0  0  0  0  0  0
   -2.1340  -15.6260  -18.1840 C   0  0  0  0  0  0  0  0  0  0  0  0
   -1.7360  -16.8830  -18.3170 N   0  0  0  0  0  0  0  0  0  0  0  0
   -2.8340  -15.0940  -19.1790 N   0  0  0  0  0  0  0  0  0  0  0  0
  2  1  2  0
  6  1  1  0
  7  1  1  0
  3  2  1  0
  4  3  2  0
  5  4  1  0
  6  5  2  0
  8  7  2  0
  9  7  1  0
A    1
C1
A    2
C2
A    3
C3
A    4
C4
A    5
C5
A    6
C6
A    7
C
A    8
N1
A    9
N2
M  END
>  <Id>  (55) 
4YTA_BEN_A_312

>  <ChainId>  (55) 
A

>  <AsymId>  (55) 
M

>  <SeqNum>  (55) 
312

>  <Name>  (55) 
BENZAMIDINE

>  <SystematicName>  (55) 
benzenecarboximidamide

>  <Synonyms>  (55) 


>  <Type>  (55) 
NON-POLYMER

>  <Formula>  (55) 
C7 H8 N2

>  <ObservedFormula>  (55) 
C7 N2

>  <MolecularWeight>  (55) 
120.152

>  <ModifiedDate>  (55) 
2011-06-04

>  <Parent>  (55) 


>  <OneLetterCode>  (55) 


>  <SubcomponentList>  (55) 


>  <AmbiguousFlag>  (55) 
N

>  <InsertionCode>  (55) 


>  <InstanceId>  (55) 
4YTA_BEN_A_312

>  <ChemCompId>  (55) 
BEN

>  <PdbId>  (55) 
4YTA

>  <ResidueNumber>  (55) 
312

>  <InChI>  (55) 
InChI=1S/C7H8N2/c8-7(9)6-4-2-1-3-5-6/h1-5H,(H3,8,9)

>  <InChIKey>  (55) 
PXXJHWLDUBFPOL-UHFFFAOYSA-N

>  <SMILES>  (55) 
[H]/N=C(\c1ccccc1)/N

>  <MissingHeavyAtoms>  (55) 
0

>  <Model>  (55) 
1

>  <AltIds>  (55) 


>  <pKI>  (55) 
6.11

>  <ChemblID>  (55) 
-

>  <standardized_canonical_smiles>  (55) 
COc1ccccc1-c1cc([C@@H](CC(=O)[O-])C(=O)[O-])cc(-c2nc3cc(C(N)=[NH2+])ccc3[nH]2)c1[O-]

$$$$
1O2Z_312_A_246
     RDKit          3D

 35 38  0  0  0  0  0  0  0  0999 V2000
   44.2790   -3.0530   25.9510 C   0  0  0  0  0  0  0  0  0  0  0  0
   44.5940   -1.6590   25.9970 C   0  0  0  0  0  0  0  0  0  0  0  0
   44.5240   -0.9070   27.1850 C   0  0  0  0  0  0  0  0  0  0  0  0
   44.1120   -1.5700   28.3210 C   0  0  0  0  0  0  0  0  0  0  0  0
   43.7890   -2.8720   28.3250 C   0  0  0  0  0  0  0  0  0  0  0  0
   43.8590   -3.6650   27.1730 C   0  0  0  0  0  0  0  0  0  0  0  0
   44.3530   -3.7730   24.7400 C   0  0  0  0  0  0  0  0  0  0  0  0
   43.9120   -5.0160   24.6900 N   0  0  0  0  0  0  0  0  0  0  0  0
   44.8650   -3.2000   23.6670 N   0  0  0  0  0  0  0  0  0  0  0  0
   43.9270   -1.1470   29.5270 N   0  0  0  0  0  0  0  0  0  0  0  0
   43.4130   -3.2960   29.5200 N   0  0  0  0  0  0  0  0  0  0  0  0
   43.5260   -2.1690   30.2190 C   0  0  0  0  0  0  0  0  0  0  0  0
   43.2490   -2.0920   31.6190 C   0  0  0  0  0  0  0  0  0  0  0  0
   42.8920   -3.2290   32.3650 C   0  0  0  0  0  0  0  0  0  0  0  0
   42.6230   -3.1660   33.7340 C   0  0  0  0  0  0  0  0  0  0  0  0
   42.2290   -4.4390   34.5270 C   0  0  0  0  0  0  0  0  0  0  0  0
   40.7860   -4.7230   34.0640 C   0  0  0  0  0  0  0  0  0  0  0  0
   40.6870   -5.4970   33.1190 O   0  0  0  0  0  0  0  0  0  0  0  0
   39.8600   -4.1650   34.6370 O   0  0  0  0  0  0  0  0  0  0  0  0
   42.3800   -4.2920   36.1480 C   0  0  0  0  0  0  0  0  0  0  0  0
   43.2280   -5.4210   36.8500 C   0  0  0  0  0  0  0  0  0  0  0  0
   43.0690   -6.5880   36.5120 O   0  0  0  0  0  0  0  0  0  0  0  0
   44.0240   -5.0800   37.7240 O   0  0  0  0  0  0  0  0  0  0  0  0
   42.7200   -1.9600   34.3720 C   0  0  0  0  0  0  0  0  0  0  0  0
   43.0730   -0.8160   33.7240 C   0  0  0  0  0  0  0  0  0  0  0  0
   43.3290   -0.8750   32.3480 C   0  0  0  0  0  0  0  0  0  0  0  0
   43.6260    0.2980   31.6680 O   0  0  0  0  0  0  0  0  0  0  0  0
   43.2480    0.3090   34.5250 C   0  0  0  0  0  0  0  0  0  0  0  0
   42.2110    0.9560   35.2490 C   0  0  0  0  0  0  0  0  0  0  0  0
   42.5030    2.0760   36.0450 C   0  0  0  0  0  0  0  0  0  0  0  0
   43.7880    2.5620   36.1310 C   0  0  0  0  0  0  0  0  0  0  0  0
   44.8120    1.9560   35.4430 C   0  0  0  0  0  0  0  0  0  0  0  0
   44.5460    0.8330   34.6440 C   0  0  0  0  0  0  0  0  0  0  0  0
   40.9080    0.4890   35.1840 O   0  0  0  0  0  0  0  0  0  0  0  0
   39.7830    1.3260   35.4890 C   0  0  0  0  0  0  0  0  0  0  0  0
  2  1  2  0
  6  1  1  0
  7  1  1  0
  3  2  1  0
  4  3  2  0
  5  4  1  0
 10  4  1  0
  6  5  2  0
 11  5  1  0
  8  7  1  0
  9  7  2  0
 12 10  1  0
 12 11  2  0
 13 12  1  0
 14 13  2  0
 26 13  1  0
 15 14  1  0
 16 15  1  0
 24 15  2  0
 17 16  1  0
 20 16  1  0
 18 17  2  0
 19 17  1  0
 21 20  1  0
 22 21  2  0
 23 21  1  0
 25 24  1  0
 26 25  2  0
 28 25  1  0
 27 26  1  0
 29 28  2  0
 33 28  1  0
 30 29  1  0
 34 29  1  0
 31 30  2  0
 32 31  1  0
 33 32  2  0
 35 34  1  0
M  CHG  4   9   1  19  -1  23  -1  27  -1
A    1
C1
A    2
C2
A    3
C3
A    4
C4
A    5
C5
A    6
C6
A    7
C7
A    8
N1
A    9
N2
A   10
N3
A   11
N4
A   12
C8
A   13
C1'
A   14
C2'
A   15
C3'
A   16
CVX
A   17
CWX
A   18
OXX
A   19
OYX
A   20
C6X
A   21
C7X
A   22
O8X
A   23
O9X
A   24
C4'
A   25
C5'
A   26
C6'
A   27
O6'
A   28
C1B
A   29
C2B
A   30
C3B
A   31
C4B
A   32
C5B
A   33
C6B
A   34
O2B
A   35
CME
M  END
>  <Id>  (56) 
1O2Z_312_A_246

>  <ChainId>  (56) 
A

>  <AsymId>  (56) 
C

>  <SeqNum>  (56) 
246

>  <Name>  (56) 
2-(5-{5-[AMINO(IMINIO)METHYL]-1H-BENZIMIDAZOL-2-YL}-2'-METHOXY-6-OXIDO-1,1'-BIPHENYL-3-YL)SUCCINATE

>  <SystematicName>  (56) 
(2R)-2-[3-[5-(amino-azaniumylidene-methyl)-1H-benzimidazol-2-yl]-5-(2-methoxyphenyl)-4-oxido-phenyl]butanedioate

>  <Synonyms>  (56) 
CRA_17312

>  <Type>  (56) 
NON-POLYMER

>  <Formula>  (56) 
C25 H20 N4 O6

>  <ObservedFormula>  (56) 
C25 N4 O6

>  <MolecularWeight>  (56) 
472.45

>  <ModifiedDate>  (56) 
2011-06-04

>  <Parent>  (56) 


>  <OneLetterCode>  (56) 


>  <SubcomponentList>  (56) 


>  <AmbiguousFlag>  (56) 
N

>  <InsertionCode>  (56) 


>  <InstanceId>  (56) 
1O2Z_312_A_246

>  <ChemCompId>  (56) 
312

>  <PdbId>  (56) 
1O2Z

>  <ResidueNumber>  (56) 
246

>  <InChI>  (56) 
InChI=1S/C25H22N4O6/c1-35-20-5-3-2-4-14(20)16-8-13(15(25(33)34)11-21(30)31)9-17(22(16)32)24-28-18-7-6-12(23(26)27)10-19(18)29-24/h2-10,15,32H,11H2,1H3,(H3,26,27)(H,28,29)(H,30,31)(H,33,34)/p-2/t15-/m1/s1

>  <InChIKey>  (56) 
HVNXYZZCSQONQC-OAHLLOKOSA-L

>  <SMILES>  (56) 
COc1ccccc1c2cc(cc(c2[O-])c3[nH]c4ccc(cc4n3)C(=[NH2+])N)[C@@H](CC(=O)[O-])C(=O)[O-]

>  <MissingHeavyAtoms>  (56) 
0

>  <Model>  (56) 
1

>  <AltIds>  (56) 


>  <pKI>  (56) 
6.11

>  <ChemblID>  (56) 
-

>  <standardized_canonical_smiles>  (56) 
COc1ccccc1-c1cc([C@@H](CC(=O)[O-])C(=O)[O-])cc(-c2nc3cc(C(N)=[NH2+])ccc3[nH]2)c1[O-]

$$$$
5T3H_SEY_A_312
     RDKit          3D

  4  3  0  0  0  0  0  0  0  0999 V2000
   23.0570   20.9030   23.5420 Se  0  0  0  0  0  2  0  0  0  0  0  0
   22.5250   19.3380   24.4560 C   0  0  0  0  0  0  0  0  0  0  0  0
   22.4820   19.3140   25.7910 N   0  0  0  0  0  0  0  0  0  0  0  0
   22.2290   18.2680   23.7820 N   0  0  0  0  0  0  0  0  0  0  0  0
  2  1  2  0
  3  2  1  0
  4  2  1  0
A    1
SE
A    2
C
A    3
N2
A    4
N1
M  END
>  <Id>  (57) 
5T3H_SEY_A_312

>  <ChainId>  (57) 
A

>  <AsymId>  (57) 
M

>  <SeqNum>  (57) 
312

>  <Name>  (57) 
selenourea

>  <SystematicName>  (57) 
selenourea

>  <Synonyms>  (57) 


>  <Type>  (57) 
NON-POLYMER

>  <Formula>  (57) 
C H4 N2 Se

>  <ObservedFormula>  (57) 
Se C N2

>  <MolecularWeight>  (57) 
123.016

>  <ModifiedDate>  (57) 
2012-06-22

>  <Parent>  (57) 


>  <OneLetterCode>  (57) 


>  <SubcomponentList>  (57) 


>  <AmbiguousFlag>  (57) 
N

>  <InsertionCode>  (57) 


>  <InstanceId>  (57) 
5T3H_SEY_A_312

>  <ChemCompId>  (57) 
SEY

>  <PdbId>  (57) 
5T3H

>  <ResidueNumber>  (57) 
312

>  <InChI>  (57) 
InChI=1S/CH4N2Se/c2-1(3)4/h(H4,2,3,4)

>  <InChIKey>  (57) 
IYKVLICPFCEZOF-UHFFFAOYSA-N

>  <SMILES>  (57) 
C(=[Se])(N)N

>  <MissingHeavyAtoms>  (57) 
0

>  <Model>  (57) 
1

>  <AltIds>  (57) 


>  <pKI>  (57) 
6.11

>  <ChemblID>  (57) 
-

>  <standardized_canonical_smiles>  (57) 
COc1ccccc1-c1cc([C@@H](CC(=O)[O-])C(=O)[O-])cc(-c2nc3cc(C(N)=[NH2+])ccc3[nH]2)c1[O-]

$$$$
1TX7_4CM_A_247
     RDKit          3D

 13 13  0  0  0  0  0  0  0  0999 V2000
   -1.5920   14.6610   50.8870 C   0  0  0  0  0  0  0  0  0  0  0  0
   -1.1280   10.8900   47.1070 O   0  0  0  0  0  0  0  0  0  0  0  0
   -1.8390   13.2410   50.9130 C   0  0  0  0  0  0  0  0  0  0  0  0
    0.2370   12.7330   46.1320 O   0  0  0  0  0  0  0  0  0  0  0  0
   -1.3640   12.4240   49.8530 C   0  0  0  0  0  0  0  0  0  0  0  0
   -1.8340   16.7550   52.0190 N   0  0  0  0  0  0  0  0  0  0  0  0
   -2.7490   14.9590   53.0020 N   0  0  0  0  0  0  0  0  0  0  0  0
   -0.6400   13.0160   48.7520 C   0  0  0  0  0  0  0  0  0  0  0  0
   -0.4020   14.4620   48.7240 C   0  0  0  0  0  0  0  0  0  0  0  0
   -0.8770   15.2620   49.7980 C   0  0  0  0  0  0  0  0  0  0  0  0
   -2.0790   15.4950   52.0130 C   0  0  0  0  0  0  0  0  0  0  0  0
   -0.0360   11.9180   47.4190 P   0  0  0  0  0  0  0  0  0  0  0  0
    1.5150   11.1200   48.0460 C   0  0  0  0  0  0  0  0  0  0  0  0
  3  1  2  0
 10  1  1  0
 11  1  1  0
 12  2  1  0
  5  3  1  0
 12  4  2  0
  8  5  2  0
 11  6  1  0
 11  7  2  0
  9  8  1  0
 12  8  1  0
 10  9  2  0
 13 12  1  0
A    1
C1
A    2
O1
A    3
C2
A    4
O2
A    5
C3
A    6
N1
A    7
N2
A    8
C4
A    9
C5
A   10
C6
A   11
C7
A   12
P1
A   13
C8
M  END
>  <Id>  (58) 
1TX7_4CM_A_247

>  <ChainId>  (58) 
A

>  <AsymId>  (58) 
C

>  <SeqNum>  (58) 
247

>  <Name>  (58) 
(4-CARBAMIMIDOYLPHENYL)-METHYL-PHOSPHINIC ACID

>  <SystematicName>  (58) 
(4-carbamimidoylphenyl)-methyl-phosphinic acid

>  <Synonyms>  (58) 


>  <Type>  (58) 
NON-POLYMER

>  <Formula>  (58) 
C8 H11 N2 O2 P

>  <ObservedFormula>  (58) 
P C8 N2 O2

>  <MolecularWeight>  (58) 
198.159

>  <ModifiedDate>  (58) 
2011-06-04

>  <Parent>  (58) 


>  <OneLetterCode>  (58) 


>  <SubcomponentList>  (58) 


>  <AmbiguousFlag>  (58) 
N

>  <InsertionCode>  (58) 


>  <InstanceId>  (58) 
1TX7_4CM_A_247

>  <ChemCompId>  (58) 
4CM

>  <PdbId>  (58) 
1TX7

>  <ResidueNumber>  (58) 
247

>  <InChI>  (58) 
InChI=1S/C8H11N2O2P/c1-13(11,12)7-4-2-6(3-5-7)8(9)10/h2-5H,1H3,(H3,9,10)(H,11,12)

>  <InChIKey>  (58) 
CVABPMXIKVDCLF-UHFFFAOYSA-N

>  <SMILES>  (58) 
C[P@](=O)(c1ccc(cc1)C(=N)N)O

>  <MissingHeavyAtoms>  (58) 
0

>  <Model>  (58) 
1

>  <AltIds>  (58) 


>  <pKI>  (58) 
4.6

>  <ChemblID>  (58) 
-

>  <standardized_canonical_smiles>  (58) 
C[P@@](=O)(O)c1ccc(C(=N)N)cc1

$$$$
3M35_M35_A_301
     RDKit          3D

 37 40  0  0  0  0  0  0  0  0999 V2000
   17.2430   67.1500   25.4920 C   0  0  0  0  0  0  0  0  0  0  0  0
   24.0950   67.9160   21.0680 F   0  0  0  0  0  0  0  0  0  0  0  0
   20.0710   68.5200   22.4700 N   0  0  0  0  0  0  0  0  0  0  0  0
   18.9970   78.5930   21.2640 S   0  0  0  0  0  0  0  0  0  0  0  0
   16.8830   67.0630   24.0770 C   0  0  0  0  0  0  0  0  0  0  0  0
   22.8450   66.3480   20.2720 F   0  0  0  0  0  0  0  0  0  0  0  0
   17.8330   67.5390   23.0630 C   0  0  0  0  0  0  0  0  0  0  0  0
   23.0930   68.1790   19.1970 F   0  0  0  0  0  0  0  0  0  0  0  0
   20.2050   67.1420   27.6090 N   0  0  0  0  0  0  0  0  0  0  0  0
   18.8650   70.9740   23.2450 O   0  0  0  0  0  0  0  0  0  0  0  0
   19.1460   68.0980   23.4160 C   0  0  0  0  0  0  0  0  0  0  0  0
   17.6980   72.9810   21.2640 F   0  0  0  0  0  0  0  0  0  0  0  0
   20.0710   77.6480   21.2060 O   0  0  0  0  0  0  0  0  0  0  0  0
   19.4990   68.1980   24.8290 C   0  0  0  0  0  0  0  0  0  0  0  0
   20.3100   72.2080   22.0450 N   0  0  0  0  0  0  0  0  0  0  0  0
   19.3220   79.9570   20.9600 O   0  0  0  0  0  0  0  0  0  0  0  0
   18.5510   67.7240   25.8380 C   0  0  0  0  0  0  0  0  0  0  0  0
   20.9200   67.6340   21.8630 N   0  0  0  0  0  0  0  0  0  0  0  0
   19.7640   73.4340   22.3890 C   0  0  0  0  0  0  0  0  0  0  0  0
   19.8290   71.0130   22.4940 C   0  0  0  0  0  0  0  0  0  0  0  0
   17.6020   78.0730   20.2540 C   0  0  0  0  0  0  0  0  0  0  0  0
   21.8250   68.2910   21.1340 C   0  0  0  0  0  0  0  0  0  0  0  0
   23.0030   67.6620   20.3890 C   0  0  0  0  0  0  0  0  0  0  0  0
   21.5560   69.6850   21.2460 C   0  0  0  0  0  0  0  0  0  0  0  0
   20.4310   69.7950   22.1030 C   0  0  0  0  0  0  0  0  0  0  0  0
   17.7970   75.0690   22.4340 C   0  0  0  0  0  0  0  0  0  0  0  0
   17.3040   77.4670   24.9250 C   0  0  0  0  0  0  0  0  0  0  0  0
   18.5960   75.9750   23.2480 C   0  0  0  0  0  0  0  0  0  0  0  0
   18.0550   77.3290   23.6680 C   0  0  0  0  0  0  0  0  0  0  0  0
   19.9690   75.5950   23.5890 C   0  0  0  0  0  0  0  0  0  0  0  0
   18.9450   67.8370   27.2950 C   0  0  0  0  0  0  0  0  0  0  0  0
   18.2680   78.5630   22.8980 C   0  0  0  0  0  0  0  0  0  0  0  0
   20.5710   74.3440   23.1780 C   0  0  0  0  0  0  0  0  0  0  0  0
   16.8510   78.7850   25.3690 C   0  0  0  0  0  0  0  0  0  0  0  0
   17.8120   79.8830   23.3640 C   0  0  0  0  0  0  0  0  0  0  0  0
   17.1060   80.0120   24.6260 C   0  0  0  0  0  0  0  0  0  0  0  0
   18.4040   73.8200   22.0190 C   0  0  0  0  0  0  0  0  0  0  0  0
  5  1  2  0
 17  1  1  0
 23  2  1  0
 11  3  1  0
 18  3  1  0
 25  3  1  0
 13  4  2  0
 16  4  2  0
 21  4  1  0
 32  4  1  0
  7  5  1  0
 23  6  1  0
 11  7  2  0
 23  8  1  0
 31  9  1  0
 20 10  2  0
 14 11  1  0
 37 12  1  0
 17 14  2  0
 19 15  1  0
 20 15  1  0
 31 17  1  0
 22 18  2  0
 33 19  1  0
 37 19  2  0
 25 20  1  0
 23 22  1  0
 24 22  1  0
 25 24  2  0
 28 26  2  0
 37 26  1  0
 29 27  2  0
 34 27  1  0
 29 28  1  0
 30 28  1  0
 32 29  1  0
 33 30  2  0
 35 32  2  0
 36 34  2  0
 36 35  1  0
A    1
C1
A    2
F1
A    3
N1
A    4
S1
A    5
C2
A    6
F2
A    7
C3
A    8
F3
A    9
N3
A   10
O3
A   11
C4
A   12
F4
A   13
O4
A   14
C5
A   15
N5
A   16
O5
A   17
C6
A   18
N6
A   19
C7
A   20
C8
A   21
C9
A   22
C10
A   23
C11
A   24
C12
A   25
C13
A   26
C14
A   27
C15
A   28
C16
A   29
C17
A   30
C18
A   31
C20
A   32
C21
A   33
C22
A   34
C23
A   35
C24
A   36
C26
A   37
C44
M  END
>  <Id>  (59) 
3M35_M35_A_301

>  <ChainId>  (59) 
A

>  <AsymId>  (59) 
B

>  <SeqNum>  (59) 
301

>  <Name>  (59) 
1-[3-(aminomethyl)phenyl]-N-[3-fluoro-2'-(methylsulfonyl)biphenyl-4-yl]-3-(trifluoromethyl)-1H-pyrazole-5-carboxamide

>  <SystematicName>  (59) 
2-[3-(aminomethyl)phenyl]-N-[2-fluoro-4-(2-methylsulfonylphenyl)phenyl]-5-(trifluoromethyl)pyrazole-3-carboxamide

>  <Synonyms>  (59) 


>  <Type>  (59) 
NON-POLYMER

>  <Formula>  (59) 
C25 H20 F4 N4 O3 S

>  <ObservedFormula>  (59) 
C25 S F4 N4 O3

>  <MolecularWeight>  (59) 
532.51

>  <ModifiedDate>  (59) 
2011-06-04

>  <Parent>  (59) 


>  <OneLetterCode>  (59) 


>  <SubcomponentList>  (59) 


>  <AmbiguousFlag>  (59) 
N

>  <InsertionCode>  (59) 


>  <InstanceId>  (59) 
3M35_M35_A_301

>  <ChemCompId>  (59) 
M35

>  <PdbId>  (59) 
3M35

>  <ResidueNumber>  (59) 
301

>  <InChI>  (59) 
InChI=1S/C25H20F4N4O3S/c1-37(35,36)22-8-3-2-7-18(22)16-9-10-20(19(26)12-16)31-24(34)21-13-23(25(27,28)29)32-33(21)17-6-4-5-15(11-17)14-30/h2-13H,14,30H2,1H3,(H,31,34)

>  <InChIKey>  (59) 
ZLUOAFAJSUPHOG-UHFFFAOYSA-N

>  <SMILES>  (59) 
CS(=O)(=O)c1ccccc1c2ccc(c(c2)F)NC(=O)c3cc(nn3c4cccc(c4)CN)C(F)(F)F

>  <MissingHeavyAtoms>  (59) 
0

>  <Model>  (59) 
1

>  <AltIds>  (59) 


>  <pKI>  (59) 
7.22

>  <ChemblID>  (59) 
-

>  <standardized_canonical_smiles>  (59) 
CS(=O)(=O)c1ccccc1-c1ccc(NC(=O)c2cc(C(F)(F)F)nn2-c2cccc(CN)c2)c(F)c1

$$$$
1TX8_AM4_A_302
     RDKit          3D

 13 13  0  0  0  0  0  0  0  0999 V2000
   -1.4040   12.4200   50.1430 C   0  0  0  0  0  0  0  0  0  0  0  0
   -1.8370   13.3350   51.1420 C   0  0  0  0  0  0  0  0  0  0  0  0
   -1.8040   14.7450   50.9080 C   0  0  0  0  0  0  0  0  0  0  0  0
   -2.2880   15.7200   52.0060 C   0  0  0  0  0  0  0  0  0  0  0  0
   -1.4510   16.9130   52.1860 N   0  0  0  0  0  0  0  0  0  0  0  0
   -2.4160   15.0340   53.2750 N   0  0  0  0  0  0  0  0  0  0  0  0
   -1.3250   15.2200   49.6460 C   0  0  0  0  0  0  0  0  0  0  0  0
   -0.8910   14.3050   48.6420 C   0  0  0  0  0  0  0  0  0  0  0  0
   -0.9300   12.9020   48.8880 C   0  0  0  0  0  0  0  0  0  0  0  0
   -0.3970   11.7390   47.6520 S   0  0  0  0  0  0  0  0  0  0  0  0
   -1.7930   10.6700   47.2020 C   0  0  0  0  0  0  0  0  0  0  0  0
    0.0350   12.4400   46.4610 O   0  0  0  0  0  0  0  0  0  0  0  0
    0.7030   10.9460   48.1650 O   0  0  0  0  0  0  0  0  0  0  0  0
  2  1  2  0
  9  1  1  0
  3  2  1  0
  4  3  1  0
  7  3  2  0
  5  4  2  0
  6  4  1  0
  8  7  1  0
  9  8  2  0
 10  9  1  0
 11 10  1  0
 12 10  2  0
 13 10  2  0
A    1
C2
A    2
C3
A    3
C4
A    4
C11
A    5
N13
A    6
N12
A    7
C5
A    8
C6
A    9
C1
A   10
S7
A   11
C10
A   12
O9
A   13
O8
M  END
>  <Id>  (60) 
1TX8_AM4_A_302

>  <ChainId>  (60) 
A

>  <AsymId>  (60) 
C

>  <SeqNum>  (60) 
302

>  <Name>  (60) 
4-(METHYLSULFONYL)BENZENECARBOXIMIDAMIDE

>  <SystematicName>  (60) 
4-methylsulfonylbenzenecarboximidamide

>  <Synonyms>  (60) 


>  <Type>  (60) 
NON-POLYMER

>  <Formula>  (60) 
C8 H10 N2 O2 S

>  <ObservedFormula>  (60) 
C8 S N2 O2

>  <MolecularWeight>  (60) 
198.242

>  <ModifiedDate>  (60) 
2011-06-04

>  <Parent>  (60) 


>  <OneLetterCode>  (60) 


>  <SubcomponentList>  (60) 


>  <AmbiguousFlag>  (60) 
N

>  <InsertionCode>  (60) 


>  <InstanceId>  (60) 
1TX8_AM4_A_302

>  <ChemCompId>  (60) 
AM4

>  <PdbId>  (60) 
1TX8

>  <ResidueNumber>  (60) 
302

>  <InChI>  (60) 
InChI=1S/C8H10N2O2S/c1-13(11,12)7-4-2-6(3-5-7)8(9)10/h2-5H,1H3,(H3,9,10)

>  <InChIKey>  (60) 
ANPBNAUKOUYEGJ-UHFFFAOYSA-N

>  <SMILES>  (60) 
CS(=O)(=O)c1ccc(cc1)C(=N)N

>  <MissingHeavyAtoms>  (60) 
0

>  <Model>  (60) 
1

>  <AltIds>  (60) 


>  <pKI>  (60) 
2.74

>  <ChemblID>  (60) 
-

>  <standardized_canonical_smiles>  (60) 
CS(=O)(=O)c1ccc(C(=N)N)cc1

$$$$
1QA0_270_A_300
     RDKit          3D

 10 11  0  0  0  0  0  0  0  0999 V2000
    9.3200   18.2660   19.8760 N   0  0  0  0  0  0  0  0  0  0  0  0
    8.9110   18.5470   18.6480 C   0  0  0  0  0  0  0  0  0  0  0  0
    9.4810   19.4490   20.4950 C   0  0  0  0  0  0  0  0  0  0  0  0
    9.8950   19.7130   21.8140 C   0  0  0  0  0  0  0  0  0  0  0  0
   10.0110   21.0770   22.1790 C   0  0  0  0  0  0  0  0  0  0  0  0
    9.6960   22.1000   21.2610 C   0  0  0  0  0  0  0  0  0  0  0  0
    9.2430   21.8240   19.9400 C   0  0  0  0  0  0  0  0  0  0  0  0
    9.1610   20.4640   19.5820 C   0  0  0  0  0  0  0  0  0  0  0  0
    8.8050   19.8790   18.4330 N   0  0  0  0  0  0  0  0  0  0  0  0
    8.6310   17.6310   17.7440 N   0  0  0  0  0  0  0  0  0  0  0  0
  2  1  1  0
  3  1  2  0
  9  2  1  0
 10  2  1  0
  4  3  1  0
  8  3  1  0
  5  4  2  0
  6  5  1  0
  7  6  2  0
  8  7  1  0
  9  8  2  0
A    1
N1
A    2
C1
A    3
C2
A    4
C3
A    5
C4
A    6
C5
A    7
C6
A    8
C7
A    9
N3
A   10
N2
M  END
>  <Id>  (61) 
1QA0_270_A_300

>  <ChainId>  (61) 
A

>  <AsymId>  (61) 
C

>  <SeqNum>  (61) 
300

>  <Name>  (61) 
2H-BENZOIMIDAZOL-2-YLAMINE

>  <SystematicName>  (61) 
2H-benzimidazol-2-amine

>  <Synonyms>  (61) 
ZK-800270

>  <Type>  (61) 
NON-POLYMER

>  <Formula>  (61) 
C7 H7 N3

>  <ObservedFormula>  (61) 
C7 N3

>  <MolecularWeight>  (61) 
133.151

>  <ModifiedDate>  (61) 
2011-06-04

>  <Parent>  (61) 


>  <OneLetterCode>  (61) 


>  <SubcomponentList>  (61) 


>  <AmbiguousFlag>  (61) 
N

>  <InsertionCode>  (61) 


>  <InstanceId>  (61) 
1QA0_270_A_300

>  <ChemCompId>  (61) 
270

>  <PdbId>  (61) 
1QA0

>  <ResidueNumber>  (61) 
300

>  <InChI>  (61) 
InChI=1S/C7H7N3/c8-7-9-5-3-1-2-4-6(5)10-7/h1-4,7H,8H2

>  <InChIKey>  (61) 
DERVZEOWPBCBHO-UHFFFAOYSA-N

>  <SMILES>  (61) 
C1=CC2=NC(N=C2C=C1)N

>  <MissingHeavyAtoms>  (61) 
0

>  <Model>  (61) 
1

>  <AltIds>  (61) 


>  <pKI>  (61) 
3.7

>  <ChemblID>  (61) 
-

>  <standardized_canonical_smiles>  (61) 
NC1N=c2ccccc2=N1

$$$$
1LQE_SO4_A_270
     RDKit          3D

  5  4  0  0  0  0  0  0  0  0999 V2000
   27.1410  -29.1530   18.7390 S   0  0  0  0  0  0  0  0  0  0  0  0
   27.0500  -28.9870   20.1310 O   0  0  0  0  0  0  0  0  0  0  0  0
   25.8630  -29.5820   18.3730 O   0  0  0  0  0  0  0  0  0  0  0  0
   27.3990  -27.8930   18.1330 O   0  0  0  0  0  0  0  0  0  0  0  0
   28.1390  -30.1040   18.4020 O   0  0  0  0  0  0  0  0  0  0  0  0
  2  1  2  0
  3  1  2  0
  4  1  1  0
  5  1  1  0
M  CHG  2   4  -1   5  -1
A    1
S
A    2
O1
A    3
O2
A    4
O3
A    5
O4
M  END
>  <Id>  (62) 
1LQE_SO4_A_270

>  <ChainId>  (62) 
A

>  <AsymId>  (62) 
C

>  <SeqNum>  (62) 
270

>  <Name>  (62) 
SULFATE ION

>  <SystematicName>  (62) 
sulfate

>  <Synonyms>  (62) 


>  <Type>  (62) 
NON-POLYMER

>  <Formula>  (62) 
O4 S

>  <ObservedFormula>  (62) 
S O4

>  <MolecularWeight>  (62) 
96.063

>  <ModifiedDate>  (62) 
2011-06-04

>  <Parent>  (62) 


>  <OneLetterCode>  (62) 


>  <SubcomponentList>  (62) 


>  <AmbiguousFlag>  (62) 
N

>  <InsertionCode>  (62) 


>  <InstanceId>  (62) 
1LQE_SO4_A_270

>  <ChemCompId>  (62) 
SO4

>  <PdbId>  (62) 
1LQE

>  <ResidueNumber>  (62) 
270

>  <InChI>  (62) 
InChI=1S/H2O4S/c1-5(2,3)4/h(H2,1,2,3,4)/p-2

>  <InChIKey>  (62) 
QAOWNCQODCNURD-UHFFFAOYSA-L

>  <SMILES>  (62) 
[O-]S(=O)(=O)[O-]

>  <MissingHeavyAtoms>  (62) 
0

>  <Model>  (62) 
1

>  <AltIds>  (62) 


>  <pKI>  (62) 
3.7

>  <ChemblID>  (62) 
-

>  <standardized_canonical_smiles>  (62) 
NC1N=c2ccccc2=N1

$$$$
2FX6_270_A_246
     RDKit          3D

 10 11  0  0  0  0  0  0  0  0999 V2000
   44.4200   -2.3760   25.6810 N   0  0  0  0  0  0  0  0  0  0  0  0
   44.1210   -3.6080   25.3470 C   0  0  0  0  0  0  0  0  0  0  0  0
   44.1430   -2.2660   26.9430 C   0  0  0  0  0  0  0  0  0  0  0  0
   44.2820   -1.1670   27.7600 C   0  0  0  0  0  0  0  0  0  0  0  0
   43.9050   -1.3490   29.0980 C   0  0  0  0  0  0  0  0  0  0  0  0
   43.4110   -2.5950   29.5450 C   0  0  0  0  0  0  0  0  0  0  0  0
   43.2860   -3.7060   28.6680 C   0  0  0  0  0  0  0  0  0  0  0  0
   43.6700   -3.4780   27.3690 C   0  0  0  0  0  0  0  0  0  0  0  0
   43.6570   -4.3030   26.3630 N   0  0  0  0  0  0  0  0  0  0  0  0
   44.3670   -4.0970   24.1710 N   0  0  0  0  0  0  0  0  0  0  0  0
  2  1  1  0
  3  1  2  0
  9  2  1  0
 10  2  1  0
  4  3  1  0
  8  3  1  0
  5  4  2  0
  6  5  1  0
  7  6  2  0
  8  7  1  0
  9  8  2  0
A    1
N1
A    2
C1
A    3
C2
A    4
C3
A    5
C4
A    6
C5
A    7
C6
A    8
C7
A    9
N3
A   10
N2
M  END
>  <Id>  (63) 
2FX6_270_A_246

>  <ChainId>  (63) 
A

>  <AsymId>  (63) 
C

>  <SeqNum>  (63) 
246

>  <Name>  (63) 
2H-BENZOIMIDAZOL-2-YLAMINE

>  <SystematicName>  (63) 
2H-benzimidazol-2-amine

>  <Synonyms>  (63) 
ZK-800270

>  <Type>  (63) 
NON-POLYMER

>  <Formula>  (63) 
C7 H7 N3

>  <ObservedFormula>  (63) 
C7 N3

>  <MolecularWeight>  (63) 
133.151

>  <ModifiedDate>  (63) 
2011-06-04

>  <Parent>  (63) 


>  <OneLetterCode>  (63) 


>  <SubcomponentList>  (63) 


>  <AmbiguousFlag>  (63) 
N

>  <InsertionCode>  (63) 


>  <InstanceId>  (63) 
2FX6_270_A_246

>  <ChemCompId>  (63) 
270

>  <PdbId>  (63) 
2FX6

>  <ResidueNumber>  (63) 
246

>  <InChI>  (63) 
InChI=1S/C7H7N3/c8-7-9-5-3-1-2-4-6(5)10-7/h1-4,7H,8H2

>  <InChIKey>  (63) 
DERVZEOWPBCBHO-UHFFFAOYSA-N

>  <SMILES>  (63) 
C1=CC2=NC(N=C2C=C1)N

>  <MissingHeavyAtoms>  (63) 
0

>  <Model>  (63) 
1

>  <AltIds>  (63) 


>  <pKI>  (63) 
3.7

>  <ChemblID>  (63) 
-

>  <standardized_canonical_smiles>  (63) 
NC1N=c2ccccc2=N1

$$$$
1UTN_ABN_A_247
     RDKit          3D

  8  8  0  0  0  0  0  0  0  0999 V2000
   15.7700    7.4350    2.0060 N   0  0  0  0  0  0  0  0  0  0  0  0
   16.5660    8.5250    2.0530 C   0  0  0  0  0  0  0  0  0  0  0  0
   17.5810    8.7060    1.0780 C   0  0  0  0  0  0  0  0  0  0  0  0
   18.9020    8.1760    1.1600 C   0  0  0  0  0  0  0  0  0  0  0  0
   19.8760    8.4180    0.1440 C   0  0  0  0  0  0  0  0  0  0  0  0
   19.5990    9.1650   -1.0150 C   0  0  0  0  0  0  0  0  0  0  0  0
   18.2880    9.6640   -1.1550 C   0  0  0  0  0  0  0  0  0  0  0  0
   17.3320    9.4750   -0.1170 C   0  0  0  0  0  0  0  0  0  0  0  0
  2  1  1  0
  3  2  1  0
  4  3  2  0
  8  3  1  0
  5  4  1  0
  6  5  2  0
  7  6  1  0
  8  7  2  0
A    1
N
A    2
C
A    3
C1
A    4
C2
A    5
C3
A    6
C4
A    7
C5
A    8
C6
M  END
>  <Id>  (64) 
1UTN_ABN_A_247

>  <ChainId>  (64) 
A

>  <AsymId>  (64) 
C

>  <SeqNum>  (64) 
247

>  <Name>  (64) 
BENZYLAMINE

>  <SystematicName>  (64) 
phenylmethanamine

>  <Synonyms>  (64) 


>  <Type>  (64) 
NON-POLYMER

>  <Formula>  (64) 
C7 H9 N

>  <ObservedFormula>  (64) 
C7 N

>  <MolecularWeight>  (64) 
107.153

>  <ModifiedDate>  (64) 
2011-06-04

>  <Parent>  (64) 


>  <OneLetterCode>  (64) 


>  <SubcomponentList>  (64) 


>  <AmbiguousFlag>  (64) 
N

>  <InsertionCode>  (64) 


>  <InstanceId>  (64) 
1UTN_ABN_A_247

>  <ChemCompId>  (64) 
ABN

>  <PdbId>  (64) 
1UTN

>  <ResidueNumber>  (64) 
247

>  <InChI>  (64) 
InChI=1S/C7H9N/c8-6-7-4-2-1-3-5-7/h1-5H,6,8H2

>  <InChIKey>  (64) 
WGQKYBSKWIADBV-UHFFFAOYSA-N

>  <SMILES>  (64) 
c1ccc(cc1)CN

>  <MissingHeavyAtoms>  (64) 
0

>  <Model>  (64) 
1

>  <AltIds>  (64) 


>  <pKI>  (64) 
2.8

>  <ChemblID>  (64) 
-

>  <standardized_canonical_smiles>  (64) 
NCc1ccccc1

$$$$
5MNK_ABN_A_302
     RDKit          3D

  8  8  0  0  0  0  0  0  0  0999 V2000
   -3.0230  -15.3860  -18.9110 N   0  0  0  0  0  0  0  0  0  0  0  0
   -1.6830  -15.5400  -18.3390 C   0  0  0  0  0  0  0  0  0  0  0  0
   -1.5130  -14.7980  -17.0560 C   0  0  0  0  0  0  0  0  0  0  0  0
   -1.4420  -13.4040  -17.0630 C   0  0  0  0  0  0  0  0  0  0  0  0
   -1.2950  -12.7070  -15.8790 C   0  0  0  0  0  0  0  0  0  0  0  0
   -1.2080  -13.3860  -14.6790 C   0  0  0  0  0  0  0  0  0  0  0  0
   -1.2350  -14.7540  -14.6690 C   0  0  0  0  0  0  0  0  0  0  0  0
   -1.3900  -15.4540  -15.8440 C   0  0  0  0  0  0  0  0  0  0  0  0
  2  1  1  0
  3  2  1  0
  4  3  2  0
  8  3  1  0
  5  4  1  0
  6  5  2  0
  7  6  1  0
  8  7  2  0
A    1
N
A    2
C
A    3
C1
A    4
C2
A    5
C3
A    6
C4
A    7
C5
A    8
C6
M  END
>  <Id>  (65) 
5MNK_ABN_A_302

>  <ChainId>  (65) 
A

>  <AsymId>  (65) 
C

>  <SeqNum>  (65) 
302

>  <Name>  (65) 
BENZYLAMINE

>  <SystematicName>  (65) 
phenylmethanamine

>  <Synonyms>  (65) 


>  <Type>  (65) 
NON-POLYMER

>  <Formula>  (65) 
C7 H9 N

>  <ObservedFormula>  (65) 
C7 N

>  <MolecularWeight>  (65) 
107.153

>  <ModifiedDate>  (65) 
2011-06-04

>  <Parent>  (65) 


>  <OneLetterCode>  (65) 


>  <SubcomponentList>  (65) 


>  <AmbiguousFlag>  (65) 
N

>  <InsertionCode>  (65) 


>  <InstanceId>  (65) 
5MNK_ABN_A_302

>  <ChemCompId>  (65) 
ABN

>  <PdbId>  (65) 
5MNK

>  <ResidueNumber>  (65) 
302

>  <InChI>  (65) 
InChI=1S/C7H9N/c8-6-7-4-2-1-3-5-7/h1-5H,6,8H2

>  <InChIKey>  (65) 
WGQKYBSKWIADBV-UHFFFAOYSA-N

>  <SMILES>  (65) 
c1ccc(cc1)CN

>  <MissingHeavyAtoms>  (65) 
0

>  <Model>  (65) 
1

>  <AltIds>  (65) 


>  <pKI>  (65) 
2.8

>  <ChemblID>  (65) 
-

>  <standardized_canonical_smiles>  (65) 
NCc1ccccc1

$$$$
2BZA_ABN_A_703
     RDKit          3D

  8  8  0  0  0  0  0  0  0  0999 V2000
  -11.3430   28.6040   41.9220 N   0  0  0  0  0  0  0  0  0  0  0  0
  -12.4460   27.8940   42.1280 C   0  0  0  0  0  0  0  0  0  0  0  0
  -12.8990   27.9750   43.4640 C   0  0  0  0  0  0  0  0  0  0  0  0
  -14.1950   28.4740   43.7970 C   0  0  0  0  0  0  0  0  0  0  0  0
  -14.6620   28.5600   45.1270 C   0  0  0  0  0  0  0  0  0  0  0  0
  -13.8430   28.1460   46.1740 C   0  0  0  0  0  0  0  0  0  0  0  0
  -12.5590   27.6490   45.8890 C   0  0  0  0  0  0  0  0  0  0  0  0
  -12.0900   27.5620   44.5580 C   0  0  0  0  0  0  0  0  0  0  0  0
  2  1  1  0
  3  2  1  0
  4  3  2  0
  8  3  1  0
  5  4  1  0
  6  5  2  0
  7  6  1  0
  8  7  2  0
A    1
N
A    2
C
A    3
C1
A    4
C2
A    5
C3
A    6
C4
A    7
C5
A    8
C6
M  END
>  <Id>  (66) 
2BZA_ABN_A_703

>  <ChainId>  (66) 
A

>  <AsymId>  (66) 
E

>  <SeqNum>  (66) 
703

>  <Name>  (66) 
BENZYLAMINE

>  <SystematicName>  (66) 
phenylmethanamine

>  <Synonyms>  (66) 


>  <Type>  (66) 
NON-POLYMER

>  <Formula>  (66) 
C7 H9 N

>  <ObservedFormula>  (66) 
C7 N

>  <MolecularWeight>  (66) 
107.153

>  <ModifiedDate>  (66) 
2011-06-04

>  <Parent>  (66) 


>  <OneLetterCode>  (66) 


>  <SubcomponentList>  (66) 


>  <AmbiguousFlag>  (66) 
N

>  <InsertionCode>  (66) 


>  <InstanceId>  (66) 
2BZA_ABN_A_703

>  <ChemCompId>  (66) 
ABN

>  <PdbId>  (66) 
2BZA

>  <ResidueNumber>  (66) 
703

>  <InChI>  (66) 
InChI=1S/C7H9N/c8-6-7-4-2-1-3-5-7/h1-5H,6,8H2

>  <InChIKey>  (66) 
WGQKYBSKWIADBV-UHFFFAOYSA-N

>  <SMILES>  (66) 
c1ccc(cc1)CN

>  <MissingHeavyAtoms>  (66) 
0

>  <Model>  (66) 
1

>  <AltIds>  (66) 


>  <pKI>  (66) 
2.8

>  <ChemblID>  (66) 
-

>  <standardized_canonical_smiles>  (66) 
NCc1ccccc1

$$$$
1N6Y_ABN_A_246
     RDKit          3D

  8  8  0  0  0  0  0  0  0  0999 V2000
   30.1610  -12.1540   14.3860 N   0  0  0  0  0  0  0  0  0  0  0  0
   28.8210  -12.0920   14.9390 C   0  0  0  0  0  0  0  0  0  0  0  0
   28.6580  -12.9770   16.1630 C   0  0  0  0  0  0  0  0  0  0  0  0
   28.7270  -12.3930   17.4220 C   0  0  0  0  0  0  0  0  0  0  0  0
   28.5600  -13.1000   18.5960 C   0  0  0  0  0  0  0  0  0  0  0  0
   28.3310  -14.4470   18.5000 C   0  0  0  0  0  0  0  0  0  0  0  0
   28.2490  -15.0620   17.2430 C   0  0  0  0  0  0  0  0  0  0  0  0
   28.4250  -14.3380   16.0710 C   0  0  0  0  0  0  0  0  0  0  0  0
  2  1  1  0
  3  2  1  0
  4  3  2  0
  8  3  1  0
  5  4  1  0
  6  5  2  0
  7  6  1  0
  8  7  2  0
A    1
N
A    2
C
A    3
C1
A    4
C2
A    5
C3
A    6
C4
A    7
C5
A    8
C6
M  END
>  <Id>  (67) 
1N6Y_ABN_A_246

>  <ChainId>  (67) 
A

>  <AsymId>  (67) 
E

>  <SeqNum>  (67) 
246

>  <Name>  (67) 
BENZYLAMINE

>  <SystematicName>  (67) 
phenylmethanamine

>  <Synonyms>  (67) 


>  <Type>  (67) 
NON-POLYMER

>  <Formula>  (67) 
C7 H9 N

>  <ObservedFormula>  (67) 
C7 N

>  <MolecularWeight>  (67) 
107.153

>  <ModifiedDate>  (67) 
2011-06-04

>  <Parent>  (67) 


>  <OneLetterCode>  (67) 


>  <SubcomponentList>  (67) 


>  <AmbiguousFlag>  (67) 
N

>  <InsertionCode>  (67) 


>  <InstanceId>  (67) 
1N6Y_ABN_A_246

>  <ChemCompId>  (67) 
ABN

>  <PdbId>  (67) 
1N6Y

>  <ResidueNumber>  (67) 
246

>  <InChI>  (67) 
InChI=1S/C7H9N/c8-6-7-4-2-1-3-5-7/h1-5H,6,8H2

>  <InChIKey>  (67) 
WGQKYBSKWIADBV-UHFFFAOYSA-N

>  <SMILES>  (67) 
c1ccc(cc1)CN

>  <MissingHeavyAtoms>  (67) 
0

>  <Model>  (67) 
1

>  <AltIds>  (67) 


>  <pKI>  (67) 
2.8

>  <ChemblID>  (67) 
-

>  <standardized_canonical_smiles>  (67) 
NCc1ccccc1

$$$$
5MNM_ABN_A_305
     RDKit          3D

  8  8  0  0  0  0  0  0  0  0999 V2000
   -3.0990  -15.4400  -19.0630 N   0  0  0  0  0  0  0  0  0  0  0  0
   -1.7580  -15.5550  -18.4110 C   0  0  0  0  0  0  0  0  0  0  0  0
   -1.6860  -14.8130  -17.1220 C   0  0  0  0  0  0  0  0  0  0  0  0
   -1.9220  -13.4630  -17.0590 C   0  0  0  0  0  0  0  0  0  0  0  0
   -1.8150  -12.7940  -15.8560 C   0  0  0  0  0  0  0  0  0  0  0  0
   -1.4850  -13.4640  -14.7070 C   0  0  0  0  0  0  0  0  0  0  0  0
   -1.2570  -14.7910  -14.7560 C   0  0  0  0  0  0  0  0  0  0  0  0
   -1.3530  -15.4640  -15.9550 C   0  0  0  0  0  0  0  0  0  0  0  0
  2  1  1  0
  3  2  1  0
  4  3  2  0
  8  3  1  0
  5  4  1  0
  6  5  2  0
  7  6  1  0
  8  7  2  0
A    1
N
A    2
C
A    3
C1
A    4
C2
A    5
C3
A    6
C4
A    7
C5
A    8
C6
M  END
>  <Id>  (68) 
5MNM_ABN_A_305

>  <ChainId>  (68) 
A

>  <AsymId>  (68) 
F

>  <SeqNum>  (68) 
305

>  <Name>  (68) 
BENZYLAMINE

>  <SystematicName>  (68) 
phenylmethanamine

>  <Synonyms>  (68) 


>  <Type>  (68) 
NON-POLYMER

>  <Formula>  (68) 
C7 H9 N

>  <ObservedFormula>  (68) 
C7 N

>  <MolecularWeight>  (68) 
107.153

>  <ModifiedDate>  (68) 
2011-06-04

>  <Parent>  (68) 


>  <OneLetterCode>  (68) 


>  <SubcomponentList>  (68) 


>  <AmbiguousFlag>  (68) 
N

>  <InsertionCode>  (68) 


>  <InstanceId>  (68) 
5MNM_ABN_A_305

>  <ChemCompId>  (68) 
ABN

>  <PdbId>  (68) 
5MNM

>  <ResidueNumber>  (68) 
305

>  <InChI>  (68) 
InChI=1S/C7H9N/c8-6-7-4-2-1-3-5-7/h1-5H,6,8H2

>  <InChIKey>  (68) 
WGQKYBSKWIADBV-UHFFFAOYSA-N

>  <SMILES>  (68) 
c1ccc(cc1)CN

>  <MissingHeavyAtoms>  (68) 
0

>  <Model>  (68) 
1

>  <AltIds>  (68) 


>  <pKI>  (68) 
2.8

>  <ChemblID>  (68) 
-

>  <standardized_canonical_smiles>  (68) 
NCc1ccccc1

$$$$
5MNL_ABN_A_302
     RDKit          3D

  8  8  0  0  0  0  0  0  0  0999 V2000
    3.1400  -16.3450   18.9530 N   0  0  0  0  0  0  0  0  0  0  0  0
    1.8000  -16.3780   18.3450 C   0  0  0  0  0  0  0  0  0  0  0  0
    1.7450  -15.5460   17.0940 C   0  0  0  0  0  0  0  0  0  0  0  0
    1.9790  -14.1910   17.1290 C   0  0  0  0  0  0  0  0  0  0  0  0
    1.8910  -13.4330   15.9740 C   0  0  0  0  0  0  0  0  0  0  0  0
    1.5840  -14.0270   14.7710 C   0  0  0  0  0  0  0  0  0  0  0  0
    1.3610  -15.3640   14.7230 C   0  0  0  0  0  0  0  0  0  0  0  0
    1.4450  -16.1200   15.8750 C   0  0  0  0  0  0  0  0  0  0  0  0
  2  1  1  0
  3  2  1  0
  4  3  2  0
  8  3  1  0
  5  4  1  0
  6  5  2  0
  7  6  1  0
  8  7  2  0
A    1
N
A    2
C
A    3
C1
A    4
C2
A    5
C3
A    6
C4
A    7
C5
A    8
C6
M  END
>  <Id>  (69) 
5MNL_ABN_A_302

>  <ChainId>  (69) 
A

>  <AsymId>  (69) 
C

>  <SeqNum>  (69) 
302

>  <Name>  (69) 
BENZYLAMINE

>  <SystematicName>  (69) 
phenylmethanamine

>  <Synonyms>  (69) 


>  <Type>  (69) 
NON-POLYMER

>  <Formula>  (69) 
C7 H9 N

>  <ObservedFormula>  (69) 
C7 N

>  <MolecularWeight>  (69) 
107.153

>  <ModifiedDate>  (69) 
2011-06-04

>  <Parent>  (69) 


>  <OneLetterCode>  (69) 


>  <SubcomponentList>  (69) 


>  <AmbiguousFlag>  (69) 
N

>  <InsertionCode>  (69) 


>  <InstanceId>  (69) 
5MNL_ABN_A_302

>  <ChemCompId>  (69) 
ABN

>  <PdbId>  (69) 
5MNL

>  <ResidueNumber>  (69) 
302

>  <InChI>  (69) 
InChI=1S/C7H9N/c8-6-7-4-2-1-3-5-7/h1-5H,6,8H2

>  <InChIKey>  (69) 
WGQKYBSKWIADBV-UHFFFAOYSA-N

>  <SMILES>  (69) 
c1ccc(cc1)CN

>  <MissingHeavyAtoms>  (69) 
0

>  <Model>  (69) 
1

>  <AltIds>  (69) 


>  <pKI>  (69) 
2.8

>  <ChemblID>  (69) 
-

>  <standardized_canonical_smiles>  (69) 
NCc1ccccc1

$$$$
1N6X_ABN_A_246
     RDKit          3D

  8  8  0  0  0  0  0  0  0  0999 V2000
   30.1860  -12.1720   14.3790 N   0  0  0  0  0  0  0  0  0  0  0  0
   28.8220  -12.1040   14.9110 C   0  0  0  0  0  0  0  0  0  0  0  0
   28.6610  -12.9580   16.1500 C   0  0  0  0  0  0  0  0  0  0  0  0
   28.7400  -12.3730   17.4120 C   0  0  0  0  0  0  0  0  0  0  0  0
   28.5850  -13.1000   18.5860 C   0  0  0  0  0  0  0  0  0  0  0  0
   28.3590  -14.4570   18.4820 C   0  0  0  0  0  0  0  0  0  0  0  0
   28.2740  -15.0650   17.2220 C   0  0  0  0  0  0  0  0  0  0  0  0
   28.4280  -14.3240   16.0500 C   0  0  0  0  0  0  0  0  0  0  0  0
  2  1  1  0
  3  2  1  0
  4  3  2  0
  8  3  1  0
  5  4  1  0
  6  5  2  0
  7  6  1  0
  8  7  2  0
A    1
N
A    2
C
A    3
C1
A    4
C2
A    5
C3
A    6
C4
A    7
C5
A    8
C6
M  END
>  <Id>  (70) 
1N6X_ABN_A_246

>  <ChainId>  (70) 
A

>  <AsymId>  (70) 
E

>  <SeqNum>  (70) 
246

>  <Name>  (70) 
BENZYLAMINE

>  <SystematicName>  (70) 
phenylmethanamine

>  <Synonyms>  (70) 


>  <Type>  (70) 
NON-POLYMER

>  <Formula>  (70) 
C7 H9 N

>  <ObservedFormula>  (70) 
C7 N

>  <MolecularWeight>  (70) 
107.153

>  <ModifiedDate>  (70) 
2011-06-04

>  <Parent>  (70) 


>  <OneLetterCode>  (70) 


>  <SubcomponentList>  (70) 


>  <AmbiguousFlag>  (70) 
N

>  <InsertionCode>  (70) 


>  <InstanceId>  (70) 
1N6X_ABN_A_246

>  <ChemCompId>  (70) 
ABN

>  <PdbId>  (70) 
1N6X

>  <ResidueNumber>  (70) 
246

>  <InChI>  (70) 
InChI=1S/C7H9N/c8-6-7-4-2-1-3-5-7/h1-5H,6,8H2

>  <InChIKey>  (70) 
WGQKYBSKWIADBV-UHFFFAOYSA-N

>  <SMILES>  (70) 
c1ccc(cc1)CN

>  <MissingHeavyAtoms>  (70) 
0

>  <Model>  (70) 
1

>  <AltIds>  (70) 


>  <pKI>  (70) 
2.8

>  <ChemblID>  (70) 
-

>  <standardized_canonical_smiles>  (70) 
NCc1ccccc1

$$$$
1AUJ_PPB_A_247
     RDKit          3D

 32 34  0  0  0  0  0  0  0  0999 V2000
   28.0680   10.3070   20.2210 O   0  0  0  0  0  0  0  0  0  0  0  0
   25.0540   10.2360   20.6240 C   0  0  0  0  0  0  0  0  0  0  0  0
   25.7170    8.3720   19.1850 C   0  0  0  0  0  0  0  0  0  0  0  0
   28.0180   13.4880   22.3260 B   0  0  0  0  0  0  0  0  0  0  0  0
   27.6790   12.2590   23.0420 O   0  0  0  0  0  0  0  0  0  0  0  0
   25.8610   10.7940   19.4520 C   0  0  0  0  0  0  0  0  0  0  0  0
   24.0220    8.2850   15.5680 C   0  0  0  0  0  0  0  0  0  0  0  0
   29.6740   14.9770   16.4010 C   0  0  0  0  0  0  0  0  0  0  0  0
   29.5980   12.7750   18.1930 C   0  0  0  0  0  0  0  0  0  0  0  0
   27.2160   12.4430   20.3260 N   0  0  0  0  0  0  0  0  0  0  0  0
   30.0980   12.6310   16.8910 C   0  0  0  0  0  0  0  0  0  0  0  0
   28.6880   14.3440   20.0590 C   0  0  0  0  0  0  0  0  0  0  0  0
   25.0430    8.7110   20.5270 C   0  0  0  0  0  0  0  0  0  0  0  0
   26.0270    9.6570   18.5570 N   0  0  0  0  0  0  0  0  0  0  0  0
   29.1300   14.0320   18.6180 C   0  0  0  0  0  0  0  0  0  0  0  0
   21.3000    7.4800   15.8130 C   0  0  0  0  0  0  0  0  0  0  0  0
   30.5410   11.2930   16.3440 C   0  0  0  0  0  0  0  0  0  0  0  0
   30.1480   13.7240   16.0140 C   0  0  0  0  0  0  0  0  0  0  0  0
   25.5050    8.5870   15.2370 C   0  0  0  0  0  0  0  0  0  0  0  0
   21.6470    8.3910   14.8060 C   0  0  0  0  0  0  0  0  0  0  0  0
   26.4300    9.9050   17.2980 C   0  0  0  0  0  0  0  0  0  0  0  0
   26.5040    8.6560   16.4010 C   0  0  0  0  0  0  0  0  0  0  0  0
   27.8600    8.5570   15.8690 N   0  0  0  0  0  0  0  0  0  0  0  0
   28.3640   13.1170   20.9210 C   0  0  0  0  0  0  0  0  0  0  0  0
   23.0060    8.7860   14.7030 C   0  0  0  0  0  0  0  0  0  0  0  0
   30.9000   10.2400   15.8950 N   0  0  0  0  0  0  0  0  0  0  0  0
   23.6260    7.3790   16.5930 C   0  0  0  0  0  0  0  0  0  0  0  0
   27.2000   11.1590   19.9930 C   0  0  0  0  0  0  0  0  0  0  0  0
   29.1550   15.1160   17.7090 C   0  0  0  0  0  0  0  0  0  0  0  0
   22.2720    6.9720   16.7130 C   0  0  0  0  0  0  0  0  0  0  0  0
   29.2650   13.8500   23.0040 O   0  0  0  0  0  0  0  0  0  0  0  0
   27.0020   10.9550   16.9850 O   0  0  0  0  0  0  0  0  0  0  0  0
 22 23  1  0
 28  1  2  0
 10 28  1  0
 14  3  1  0
 10 24  1  0
 21 32  2  0
 20 25  1  0
 19  7  1  0
 12 15  1  0
 16 20  2  0
 25  7  2  0
  6  2  1  0
 12 24  1  0
 17 26  3  0
  6 28  1  0
 21 22  1  0
  2 13  1  0
 15 29  2  0
 13  3  1  0
 14  6  1  0
  8 18  2  0
 30 16  1  0
 15  9  1  0
  4 31  1  0
 14 21  1  0
 11 17  1  0
  4 24  1  0
  4  5  1  0
 30 27  2  0
  7 27  1  0
  9 11  2  0
 11 18  1  0
 22 19  1  0
 29  8  1  0
A    1
O3
A    2
C9
A    3
C11
A    4
B1
A    5
O1
A    6
C7
A    7
C21
A    8
C25
A    9
C16
A   10
N1
A   11
C23
A   12
C3
A   13
C10
A   14
N5
A   15
C4
A   16
C18
A   17
C6
A   18
C5
A   19
C13
A   20
C19
A   21
C12
A   22
C14
A   23
N6
A   24
C2
A   25
C20
A   26
N2
A   27
C22
A   28
C8
A   29
C24
A   30
C17
A   31
O2
A   32
O4
M  END
>  <InstanceId>  (71) 
1AUJ_PPB_A_247

>  <ChemCompId>  (71) 
PPB

>  <PdbId>  (71) 
1AUJ

>  <ChainId>  (71) 
A

>  <ResidueNumber>  (71) 
247

>  <InsertionCode>  (71) 


>  <Model>  (71) 
1

>  <AltIds>  (71) 


>  <MissingHeavyAtoms>  (71) 
0

>  <ObservedFormula>  (71) 
C23 N4 O4 B

>  <AsymId>  (71) 
C

>  <SeqNum>  (71) 
247

>  <Name>  (71) 
1-{[1-(2-AMINO-3-PHENYL-PROPIONYL)-PYRROLIDINE-2-CARBONYL]-AMINO}-2-(3-CYANO-PHENYL)-ETHANEBORONIC ACID

>  <SystematicName>  (71) 
[(1R)-1-[[(2S)-1-[(2R)-2-amino-3-phenyl-propanoyl]pyrrolidin-2-yl]carbonylamino]-2-(3-cyanophenyl)ethyl]boronic acid

>  <Synonyms>  (71) 
(D)PHE-PRO-BOROPHE(M-CN)

>  <Type>  (71) 
NON-POLYMER

>  <Formula>  (71) 
C23 H27 B N4 O4

>  <MolecularWeight>  (71) 
434.296

>  <ModifiedDate>  (71) 
2011-06-04

>  <Parent>  (71) 


>  <OneLetterCode>  (71) 


>  <SubcomponentList>  (71) 


>  <AmbiguousFlag>  (71) 
N

>  <InChI>  (71) 
null

>  <InChIKey>  (71) 
null

>  <SMILES>  (71) 
B([C@H](Cc1cccc(c1)C#N)NC(=O)[C@@H]2CCCN2C(=O)[C@@H](Cc3ccccc3)N)(O)O

>  <pKI>  (71) 
8.25

>  <ChemblID>  (71) 
-

>  <standardized_canonical_smiles>  (71) 
N#Cc1cccc(C[C@H](NC(=O)[C@@H]2CCCN2C(=O)[C@H](N)Cc2ccccc2)B(O)O)c1

$$$$
1YP9_UIZ_A_2222
     RDKit          3D

 31 36  0  0  0  0  0  0  0  0999 V2000
   10.2660   67.3520    7.0210 N   0  0  0  0  0  0  0  0  0  0  0  0
   11.5340   67.0880    7.3440 C   0  0  0  0  0  0  0  0  0  0  0  0
   12.2450   66.3720    6.4320 N   0  0  0  0  0  0  0  0  0  0  0  0
   12.1500   67.5160    8.5580 C   0  0  0  0  0  0  0  0  0  0  0  0
   13.4910   67.1870    8.8330 C   0  0  0  0  0  0  0  0  0  0  0  0
   14.0840   67.5970   10.0220 C   0  0  0  0  0  0  0  0  0  0  0  0
   13.3420   68.3480   10.9540 C   0  0  0  0  0  0  0  0  0  0  0  0
   13.9750   68.8110   12.2350 C   0  0  0  0  0  0  0  0  0  0  0  0
   14.5120   70.2480   12.2890 C   0  0  0  0  0  0  0  0  0  0  0  0
   13.4690   71.3620   12.0890 C   0  0  0  0  0  0  0  0  0  0  0  0
   12.4110   71.3280   11.4200 O   0  0  0  0  0  0  0  0  0  0  0  0
   13.8060   72.3910   12.9460 N   0  0  0  0  0  0  0  0  0  0  0  0
   12.8550   73.5570   13.0540 C   0  0  0  0  0  0  0  0  0  0  0  0
   12.9640   74.6170   11.9690 C   0  0  0  0  0  0  0  0  0  0  0  0
   11.8090   75.0460   11.2380 C   0  0  0  0  0  0  0  0  0  0  0  0
   11.8990   76.0360   10.2370 C   0  0  0  0  0  0  0  0  0  0  0  0
   13.1670   76.5720    9.9760 C   0  0  0  0  0  0  0  0  0  0  0  0
   13.5140   77.5350    9.0580 O   0  0  0  0  0  0  0  0  0  0  0  0
   14.9590   77.7100    9.2040 C   0  0  0  0  0  0  0  0  0  0  0  0
   15.4590   76.8310   10.2460 O   0  0  0  0  0  0  0  0  0  0  0  0
   14.3110   76.1590   10.6770 C   0  0  0  0  0  0  0  0  0  0  0  0
   14.2180   75.1770   11.6820 C   0  0  0  0  0  0  0  0  0  0  0  0
   14.6940   71.9390   14.0070 C   0  0  0  0  0  0  0  0  0  0  0  0
   14.8060   70.3970   13.8090 C   0  0  0  0  0  0  0  0  0  0  0  0
   13.6540   69.5850   14.4710 C   0  0  0  0  0  0  0  0  0  0  0  0
   14.2710   68.6490   15.5370 C   0  0  0  0  0  0  0  0  0  0  0  0
   13.3140   67.4730   15.5160 C   0  0  0  0  0  0  0  0  0  0  0  0
   13.0060   67.2820   14.0030 C   0  0  0  0  0  0  0  0  0  0  0  0
   13.0800   68.6520   13.4240 N   0  0  0  0  0  0  0  0  0  0  0  0
   12.0070   68.6620   10.6850 C   0  0  0  0  0  0  0  0  0  0  0  0
   11.4080   68.2550    9.4850 C   0  0  0  0  0  0  0  0  0  0  0  0
  2  1  2  0
  3  2  1  0
  4  2  1  0
  5  4  2  0
 31  4  1  0
  6  5  1  0
  7  6  2  0
  8  7  1  0
 30  7  1  0
  9  8  1  0
 29  8  1  0
 10  9  1  0
 24  9  1  0
 11 10  2  0
 12 10  1  0
 13 12  1  0
 23 12  1  0
 14 13  1  0
 15 14  2  0
 22 14  1  0
 16 15  1  0
 17 16  2  0
 18 17  1  0
 21 17  1  0
 19 18  1  0
 20 19  1  0
 21 20  1  0
 22 21  2  0
 24 23  1  0
 25 24  1  0
 26 25  1  0
 29 25  1  0
 27 26  1  0
 28 27  1  0
 29 28  1  0
 31 30  2  0
A    1
N1
A    2
C3
A    3
N2
A    4
C4
A    5
C5
A    6
C6
A    7
C7
A    8
C10
A    9
C22
A   10
C20
A   11
O21
A   12
N19
A   13
C23
A   14
C24
A   15
C32
A   16
C31
A   17
C30
A   18
O29
A   19
C28
A   20
O27
A   21
C26
A   22
C25
A   23
C17
A   24
C16
A   25
C15
A   26
C14
A   27
C13
A   28
C12
A   29
N11
A   30
C8
A   31
C9
M  END
>  <Id>  (72) 
1YP9_UIZ_A_2222

>  <ChainId>  (72) 
A

>  <AsymId>  (72) 
C

>  <SeqNum>  (72) 
2222

>  <Name>  (72) 
(1R,3AS,4R,8AS,8BR)-4-(2-BENZO[1,3]DIOXOL-5-YLMETHYL)-1-BENZYL-3-OXO-DECAHYDRO-PYRROLO[3,4-A]PYRROZILIN-4-YL-BENZAMIDINE

>  <SystematicName>  (72) 
4-[(1S,3aS,4R,5S,8aS,8bR)-2-(1,3-benzodioxol-5-ylmethyl)-3-oxo-1-(phenylmethyl)-1,3a,4,6,7,8,8a,8b-octahydropyrrolo[4,3-a]pyrrolizin-4-yl]benzenecarboximidamide

>  <Synonyms>  (72) 


>  <Type>  (72) 
NON-POLYMER

>  <Formula>  (72) 
C31 H32 N4 O3

>  <ObservedFormula>  (72) 
C24 N4 O3

>  <MolecularWeight>  (72) 
508.611

>  <ModifiedDate>  (72) 
2011-06-04

>  <Parent>  (72) 


>  <OneLetterCode>  (72) 


>  <SubcomponentList>  (72) 


>  <AmbiguousFlag>  (72) 
N

>  <InsertionCode>  (72) 


>  <InstanceId>  (72) 
1YP9_UIZ_A_2222

>  <ChemCompId>  (72) 
UIZ

>  <PdbId>  (72) 
1YP9

>  <ResidueNumber>  (72) 
2222

>  <InChI>  (72) 
InChI=1S/C31H32N4O3/c32-30(33)22-11-9-21(10-12-22)29-28-27(23-7-4-14-34(23)29)24(15-19-5-2-1-3-6-19)35(31(28)36)17-20-8-13-25-26(16-20)38-18-37-25/h1-3,5-6,8-13,16,23-24,27-29H,4,7,14-15,17-18H2,(H3,32,33)/t23-,24?,27+,28-,29-/m0/s1

>  <InChIKey>  (72) 
APELQVQIJUTSME-UDOPOUDQSA-N

>  <SMILES>  (72) 
[H]/N=C(/c1ccc(cc1)[C@H]2[C@@H]3[C@H]([C@H]4[N@@]2CCC4)[C@@H](N(C3=O)Cc5ccc6c(c5)OCO6)Cc7ccccc7)\N

>  <MissingHeavyAtoms>  (72) 
7

>  <Model>  (72) 
1

>  <AltIds>  (72) 


>  <pKI>  (72) 
5.11

>  <ChemblID>  (72) 
-

>  <standardized_canonical_smiles>  (72) 
N=C(N)c1ccc([C@H]2[C@H]3C(=O)N(Cc4ccc5c(c4)OCO5)C[C@H]3[C@@H]3CCCN32)cc1

$$$$
3PLP_BBA_A_481
     RDKit          3D

 28 30  0  0  0  0  0  0  0  0999 V2000
   14.0940   20.4480   32.0880 C   0  0  0  0  0  0  0  0  0  0  0  0
   13.2910   19.4870   32.9530 C   0  0  0  0  0  0  0  0  0  0  0  0
   13.8020   19.0480   34.1770 C   0  0  0  0  0  0  0  0  0  0  0  0
   13.0890   18.1320   34.9470 C   0  0  0  0  0  0  0  0  0  0  0  0
   12.0670   18.9650   32.5020 C   0  0  0  0  0  0  0  0  0  0  0  0
   11.3470   18.0570   33.2760 C   0  0  0  0  0  0  0  0  0  0  0  0
   11.8650   17.6290   34.5130 C   0  0  0  0  0  0  0  0  0  0  0  0
   11.1050   16.6460   35.3640 C   0  0  0  0  0  0  0  0  0  0  0  0
    9.7920   16.5030   35.1420 N   0  0  0  0  0  0  0  0  0  0  0  0
   11.6860   15.9610   36.2830 N   0  0  0  0  0  0  0  0  0  0  0  0
   16.5020   23.6580   34.9380 C   0  0  0  0  0  0  0  0  0  0  0  0
   15.4510   24.4300   35.7310 C   0  0  0  0  0  0  0  0  0  0  0  0
   15.3090   24.3680   37.1330 C   0  0  0  0  0  0  0  0  0  0  0  0
   14.3450   25.1510   37.8100 C   0  0  0  0  0  0  0  0  0  0  0  0
   14.6330   25.2980   35.0290 C   0  0  0  0  0  0  0  0  0  0  0  0
   13.6830   26.0700   35.6890 C   0  0  0  0  0  0  0  0  0  0  0  0
   13.5290   26.0240   37.0680 C   0  0  0  0  0  0  0  0  0  0  0  0
   12.4770   26.9130   37.6700 C   0  0  0  0  0  0  0  0  0  0  0  0
   11.4010   27.2450   36.9580 N   0  0  0  0  0  0  0  0  0  0  0  0
   12.6140   27.3960   38.8190 N   0  0  0  0  0  0  0  0  0  0  0  0
   14.2840   21.8980   32.5320 C   0  0  0  0  0  0  0  0  0  0  0  0
   15.0340   22.7000   31.4510 C   0  0  0  0  0  0  0  0  0  0  0  0
   16.4160   22.1790   31.0540 C   0  0  0  0  0  0  0  0  0  0  0  0
   17.4450   22.6140   32.0920 C   0  0  0  0  0  0  0  0  0  0  0  0
   17.3170   21.7920   33.3690 C   0  0  0  0  0  0  0  0  0  0  0  0
   16.2510   22.2510   34.3820 C   0  0  0  0  0  0  0  0  0  0  0  0
   14.8310   22.0400   33.9440 C   0  0  0  0  0  0  0  0  0  0  0  0
   14.0300   21.9700   34.8450 O   0  0  0  0  0  0  0  0  0  0  0  0
  2  1  1  0
 21  1  1  0
  3  2  2  0
  5  2  1  0
  4  3  1  0
  7  4  2  0
  6  5  2  0
  7  6  1  0
  8  7  1  0
  9  8  1  0
 10  8  2  0
 12 11  1  0
 26 11  1  0
 13 12  2  0
 15 12  1  0
 14 13  1  0
 17 14  2  0
 16 15  2  0
 17 16  1  0
 18 17  1  0
 19 18  1  0
 20 18  2  0
 22 21  1  0
 27 21  1  0
 23 22  1  0
 24 23  1  0
 25 24  1  0
 26 25  1  0
 27 26  1  0
 28 27  2  0
A    1
C8
A    2
C9
A    3
C14
A    4
C13
A    5
C10
A    6
C11
A    7
C12
A    8
C15
A    9
N16
A   10
N17
A   11
C18
A   12
C19
A   13
C20
A   14
C21
A   15
C24
A   16
C23
A   17
C22
A   18
C25
A   19
N26
A   20
N27
A   21
C1
A   22
C2
A   23
C3
A   24
C
A   25
C4
A   26
C5
A   27
C6
A   28
O7
M  END
>  <Id>  (73) 
3PLP_BBA_A_481

>  <ChainId>  (73) 
A

>  <AsymId>  (73) 
C

>  <SeqNum>  (73) 
481

>  <Name>  (73) 
2,7-BIS-(4-AMIDINOBENZYLIDENE)-CYCLOHEPTAN-1-ONE

>  <SystematicName>  (73) 
4-[[(1S,3S)-3-[(4-carbamimidoylphenyl)methyl]-2-oxo-cycloheptyl]methyl]benzenecarboximidamide

>  <Synonyms>  (73) 
BIS-BENZAMIDINE

>  <Type>  (73) 
NON-POLYMER

>  <Formula>  (73) 
C23 H28 N4 O

>  <ObservedFormula>  (73) 
C23 N4 O

>  <MolecularWeight>  (73) 
376.495

>  <ModifiedDate>  (73) 
2011-06-04

>  <Parent>  (73) 


>  <OneLetterCode>  (73) 


>  <SubcomponentList>  (73) 


>  <AmbiguousFlag>  (73) 
N

>  <InsertionCode>  (73) 


>  <InstanceId>  (73) 
3PLP_BBA_A_481

>  <ChemCompId>  (73) 
BBA

>  <PdbId>  (73) 
3PLP

>  <ResidueNumber>  (73) 
481

>  <InChI>  (73) 
InChI=1S/C23H28N4O/c24-22(25)17-9-5-15(6-10-17)13-19-3-1-2-4-20(21(19)28)14-16-7-11-18(12-8-16)23(26)27/h5-12,19-20H,1-4,13-14H2,(H3,24,25)(H3,26,27)/t19-,20-/m0/s1

>  <InChIKey>  (73) 
BXYGSMRTHHSAHZ-PMACEKPBSA-N

>  <SMILES>  (73) 
c1cc(ccc1C[C@@H]2CCCC[C@H](C2=O)Cc3ccc(cc3)C(=N)N)C(=N)N

>  <MissingHeavyAtoms>  (73) 
0

>  <Model>  (73) 
1

>  <AltIds>  (73) 


>  <pKI>  (73) 
5.9

>  <ChemblID>  (73) 
-

>  <standardized_canonical_smiles>  (73) 
N=C(N)C1=CC=C(C=C1)CC3CCCCC(CC2=CC=C(C=C2)C(=N)N)C3=O

$$$$
1V2N_BBA_T_1
     RDKit          3D

 28 30  0  0  0  0  0  0  0  0999 V2000
   43.6060   22.6170   51.1030 C   0  0  0  0  0  0  0  0  0  0  0  0
   44.1480   21.4790   51.9700 C   0  0  0  0  0  0  0  0  0  0  0  0
   44.9630   21.7290   53.1220 C   0  0  0  0  0  0  0  0  0  0  0  0
   45.4370   20.6620   53.9120 C   0  0  0  0  0  0  0  0  0  0  0  0
   43.8520   20.1330   51.6060 C   0  0  0  0  0  0  0  0  0  0  0  0
   44.3330   19.0570   52.4030 C   0  0  0  0  0  0  0  0  0  0  0  0
   45.1400   19.3200   53.5490 C   0  0  0  0  0  0  0  0  0  0  0  0
   45.6570   18.1900   54.4070 C   0  0  0  0  0  0  0  0  0  0  0  0
   45.1280   16.9340   54.2960 N   0  0  0  0  0  0  0  0  0  0  0  0
   46.6630   18.4220   55.3090 N   0  0  0  0  0  0  0  0  0  0  0  0
   42.1130   26.2480   54.3230 C   0  0  0  0  0  0  0  0  0  0  0  0
   40.8730   25.7440   55.0500 C   0  0  0  0  0  0  0  0  0  0  0  0
   40.8900   25.6100   56.4690 C   0  0  0  0  0  0  0  0  0  0  0  0
   39.7270   25.1470   57.1580 C   0  0  0  0  0  0  0  0  0  0  0  0
   39.6900   25.4080   54.3320 C   0  0  0  0  0  0  0  0  0  0  0  0
   38.5350   24.9480   55.0130 C   0  0  0  0  0  0  0  0  0  0  0  0
   38.5420   24.8140   56.4250 C   0  0  0  0  0  0  0  0  0  0  0  0
   37.2940   24.3240   57.1370 C   0  0  0  0  0  0  0  0  0  0  0  0
   36.5080   23.3580   56.5620 N   0  0  0  0  0  0  0  0  0  0  0  0
   36.9320   24.8480   58.3480 N   0  0  0  0  0  0  0  0  0  0  0  0
   43.0560   23.7970   51.5100 C   0  0  0  0  0  0  0  0  0  0  0  0
   42.6450   24.7630   50.4190 C   0  0  0  0  0  0  0  0  0  0  0  0
   43.7200   25.8790   50.2600 C   0  0  0  0  0  0  0  0  0  0  0  0
   43.5940   26.9650   51.3760 C   0  0  0  0  0  0  0  0  0  0  0  0
   43.9970   26.4030   52.7760 C   0  0  0  0  0  0  0  0  0  0  0  0
   42.8480   25.6160   53.3680 C   0  0  0  0  0  0  0  0  0  0  0  0
   42.7070   24.1870   52.9230 C   0  0  0  0  0  0  0  0  0  0  0  0
   42.3200   23.3360   53.7180 O   0  0  0  0  0  0  0  0  0  0  0  0
  2  1  1  0
 21  1  1  0
  3  2  2  0
  5  2  1  0
  4  3  1  0
  7  4  2  0
  6  5  2  0
  7  6  1  0
  8  7  1  0
  9  8  1  0
 10  8  2  0
 12 11  1  0
 26 11  1  0
 13 12  2  0
 15 12  1  0
 14 13  1  0
 17 14  2  0
 16 15  2  0
 17 16  1  0
 18 17  1  0
 19 18  1  0
 20 18  2  0
 22 21  1  0
 27 21  1  0
 23 22  1  0
 24 23  1  0
 25 24  1  0
 26 25  1  0
 27 26  1  0
 28 27  2  0
A    1
C8
A    2
C9
A    3
C14
A    4
C13
A    5
C10
A    6
C11
A    7
C12
A    8
C15
A    9
N16
A   10
N17
A   11
C18
A   12
C19
A   13
C20
A   14
C21
A   15
C24
A   16
C23
A   17
C22
A   18
C25
A   19
N26
A   20
N27
A   21
C1
A   22
C2
A   23
C3
A   24
C
A   25
C4
A   26
C5
A   27
C6
A   28
O7
M  END
>  <Id>  (74) 
1V2N_BBA_T_1

>  <ChainId>  (74) 
T

>  <AsymId>  (74) 
C

>  <SeqNum>  (74) 
1

>  <Name>  (74) 
2,7-BIS-(4-AMIDINOBENZYLIDENE)-CYCLOHEPTAN-1-ONE

>  <SystematicName>  (74) 
4-[[(1S,3S)-3-[(4-carbamimidoylphenyl)methyl]-2-oxo-cycloheptyl]methyl]benzenecarboximidamide

>  <Synonyms>  (74) 
BIS-BENZAMIDINE

>  <Type>  (74) 
NON-POLYMER

>  <Formula>  (74) 
C23 H28 N4 O

>  <ObservedFormula>  (74) 
C23 N4 O

>  <MolecularWeight>  (74) 
376.495

>  <ModifiedDate>  (74) 
2011-06-04

>  <Parent>  (74) 


>  <OneLetterCode>  (74) 


>  <SubcomponentList>  (74) 


>  <AmbiguousFlag>  (74) 
N

>  <InsertionCode>  (74) 


>  <InstanceId>  (74) 
1V2N_BBA_T_1

>  <ChemCompId>  (74) 
BBA

>  <PdbId>  (74) 
1V2N

>  <ResidueNumber>  (74) 
1

>  <InChI>  (74) 
InChI=1S/C23H28N4O/c24-22(25)17-9-5-15(6-10-17)13-19-3-1-2-4-20(21(19)28)14-16-7-11-18(12-8-16)23(26)27/h5-12,19-20H,1-4,13-14H2,(H3,24,25)(H3,26,27)/t19-,20-/m0/s1

>  <InChIKey>  (74) 
BXYGSMRTHHSAHZ-PMACEKPBSA-N

>  <SMILES>  (74) 
c1cc(ccc1C[C@@H]2CCCC[C@H](C2=O)Cc3ccc(cc3)C(=N)N)C(=N)N

>  <MissingHeavyAtoms>  (74) 
0

>  <Model>  (74) 
1

>  <AltIds>  (74) 


>  <pKI>  (74) 
5.9

>  <ChemblID>  (74) 
-

>  <standardized_canonical_smiles>  (74) 
N=C(N)C1=CC=C(C=C1)CC3CCCCC(CC2=CC=C(C=C2)C(=N)N)C3=O

$$$$
5EG4_5N7_A_504
     RDKit          3D

 59 64  0  0  0  0  0  0  0  0999 V2000
  -23.7280  -13.8470  -27.2560 C   0  0  0  0  0  0  0  0  0  0  0  0
  -24.0430  -15.3180  -27.2660 C   0  0  0  0  0  0  0  0  0  0  0  0
  -23.0280  -16.2690  -27.2530 C   0  0  0  0  0  0  0  0  0  0  0  0
  -23.3180  -17.6190  -27.2050 C   0  0  0  0  0  0  0  0  0  0  0  0
  -24.6380  -18.0470  -27.1660 C   0  0  0  0  0  0  0  0  0  0  0  0
  -25.6580  -17.1070  -27.2080 C   0  0  0  0  0  0  0  0  0  0  0  0
  -22.1900  -13.7890  -29.2860 C   0  0  0  0  0  0  0  0  0  0  0  0
  -18.2380   -7.7070  -32.8020 N   0  0  0  0  0  0  0  0  0  0  0  0
  -23.7270  -19.8510  -25.1240 O   0  0  0  0  0  0  0  0  0  0  0  0
  -19.8430  -13.2620  -29.7450 C   0  0  0  0  0  0  0  0  0  0  0  0
  -19.4560   -8.7050  -34.4410 N   0  0  0  0  0  0  0  0  0  0  0  0
  -30.4790  -17.4250  -27.9350 O   0  0  0  0  0  0  0  0  0  0  0  0
  -19.5770  -12.0990  -30.6710 C   0  0  0  0  0  0  0  0  0  0  0  0
  -24.9660  -19.4130  -26.9810 N   0  0  0  0  0  0  0  0  0  0  0  0
  -25.3500  -12.7900  -35.4360 O   0  0  0  0  0  0  0  0  0  0  0  0
  -18.4920  -11.2540  -30.4790 C   0  0  0  0  0  0  0  0  0  0  0  0
  -27.3590  -20.8510  -24.4980 N   0  0  0  0  0  0  0  0  0  0  0  0
  -26.7710  -14.3990  -34.2140 O   0  0  0  0  0  0  0  0  0  0  0  0
  -18.2840  -10.1650  -31.3040 C   0  0  0  0  0  0  0  0  0  0  0  0
  -29.7260  -19.4470  -24.8610 N   0  0  0  0  0  0  0  0  0  0  0  0
  -23.8450  -11.9730  -31.0240 O   0  0  0  0  0  0  0  0  0  0  0  0
  -19.1590   -9.8940  -32.3590 C   0  0  0  0  0  0  0  0  0  0  0  0
  -29.6270  -15.5870  -26.9050 N   0  0  0  0  0  0  0  0  0  0  0  0
  -18.9440   -8.7270  -33.2310 C   0  0  0  0  0  0  0  0  0  0  0  0
  -25.4060  -12.7680  -32.9970 N   0  0  0  0  0  0  0  0  0  0  0  0
  -20.2420  -10.7460  -32.5550 C   0  0  0  0  0  0  0  0  0  0  0  0
  -24.3570  -14.7310  -34.3020 N   0  0  0  0  0  0  0  0  0  0  0  0
  -20.4440  -11.8310  -31.7240 C   0  0  0  0  0  0  0  0  0  0  0  0
  -24.5990  -13.4940  -29.5500 N   0  0  0  0  0  0  0  0  0  0  0  0
  -25.3580  -15.7590  -27.2530 C   0  0  0  0  0  0  0  0  0  0  0  0
  -24.5800  -20.1860  -25.9430 C   0  0  0  0  0  0  0  0  0  0  0  0
  -25.3130  -21.4980  -25.8300 C   0  0  0  0  0  0  0  0  0  0  0  0
  -26.0330  -21.5650  -24.5010 C   0  0  0  0  0  0  0  0  0  0  0  0
  -27.3020  -19.3820  -24.2190 C   0  0  0  0  0  0  0  0  0  0  0  0
  -28.4660  -18.6910  -24.9700 C   0  0  0  0  0  0  0  0  0  0  0  0
  -30.8760  -18.7400  -25.4610 C   0  0  0  0  0  0  0  0  0  0  0  0
  -30.7570  -17.2260  -25.5680 C   0  0  0  0  0  0  0  0  0  0  0  0
  -30.2590  -16.7760  -26.9150 C   0  0  0  0  0  0  0  0  0  0  0  0
  -28.9000  -14.9760  -27.9510 C   0  0  0  0  0  0  0  0  0  0  0  0
  -28.5200  -15.6380  -29.1110 C   0  0  0  0  0  0  0  0  0  0  0  0
  -27.9240  -14.9400  -30.1450 C   0  0  0  0  0  0  0  0  0  0  0  0
  -27.7130  -13.5700  -30.0610 C   0  0  0  0  0  0  0  0  0  0  0  0
  -28.0960  -12.9210  -28.8970 C   0  0  0  0  0  0  0  0  0  0  0  0
  -28.6780  -13.6110  -27.8510 C   0  0  0  0  0  0  0  0  0  0  0  0
  -27.1150  -12.8040  -31.2160 C   0  0  0  0  0  0  0  0  0  0  0  0
  -25.7370  -13.3040  -31.6780 C   0  0  0  0  0  0  0  0  0  0  0  0
  -22.9180  -14.4610  -34.4620 C   0  0  0  0  0  0  0  0  0  0  0  0
  -22.1340  -15.1630  -33.3600 C   0  0  0  0  0  0  0  0  0  0  0  0
  -20.6280  -14.9810  -33.5410 C   0  0  0  0  0  0  0  0  0  0  0  0
  -20.1790  -15.4510  -34.9130 C   0  0  0  0  0  0  0  0  0  0  0  0
  -20.9520  -14.7360  -36.0030 C   0  0  0  0  0  0  0  0  0  0  0  0
  -22.4560  -14.9320  -35.8310 C   0  0  0  0  0  0  0  0  0  0  0  0
  -24.6380  -12.8610  -30.7210 C   0  0  0  0  0  0  0  0  0  0  0  0
  -29.5710  -20.7620  -25.4900 C   0  0  0  0  0  0  0  0  0  0  0  0
  -28.1170  -21.0790  -25.7580 C   0  0  0  0  0  0  0  0  0  0  0  0
  -23.4750  -13.2590  -28.6540 C   0  0  0  0  0  0  0  0  0  0  0  0
  -21.0960  -13.0770  -29.0270 N   0  0  0  0  0  0  0  0  0  0  0  0
  -22.2110  -14.7730  -30.0340 O   0  0  0  0  0  0  0  0  0  0  0  0
  -25.5550  -13.6600  -34.3220 S   0  0  0  0  0  0  0  0  0  0  0  0
  2  1  1  0
 56  1  1  0
  3  2  2  0
 30  2  1  0
  4  3  1  0
  5  4  2  0
  6  5  1  0
 14  5  1  0
 30  6  2  0
 56  7  1  0
 57  7  1  0
 58  7  2  0
 24  8  1  0
 31  9  2  0
 13 10  1  0
 57 10  1  0
 24 11  2  0
 38 12  2  0
 16 13  2  0
 28 13  1  0
 31 14  1  0
 59 15  2  0
 19 16  1  0
 33 17  1  0
 34 17  1  0
 55 17  1  0
 59 18  2  0
 22 19  2  0
 35 20  1  0
 36 20  1  0
 54 20  1  0
 53 21  2  0
 24 22  1  0
 26 22  1  0
 38 23  1  0
 39 23  1  0
 46 25  1  0
 59 25  1  0
 28 26  2  0
 47 27  1  0
 59 27  1  0
 53 29  1  0
 56 29  1  0
 32 31  1  0
 33 32  1  0
 35 34  1  0
 37 36  1  0
 38 37  1  0
 40 39  2  0
 44 39  1  0
 41 40  1  0
 42 41  2  0
 43 42  1  0
 45 42  1  0
 44 43  2  0
 46 45  1  0
 53 46  1  0
 48 47  1  0
 52 47  1  0
 49 48  1  0
 50 49  1  0
 51 50  1  0
 52 51  1  0
 55 54  1  0
A    1
C10
A    2
C11
A    3
C12
A    4
C13
A    5
C14
A    6
C15
A    7
C1
A    8
N1
A    9
O1
A   10
C2
A   11
N2
A   12
O2
A   13
C3
A   14
N3
A   15
O3
A   16
C4
A   17
N4
A   18
O4
A   19
C5
A   20
N5
A   21
O5
A   22
C6
A   23
N6
A   24
C7
A   25
N7
A   26
C8
A   27
N8
A   28
C9
A   29
N9
A   30
C16
A   31
C17
A   32
C18
A   33
C19
A   34
C20
A   35
C21
A   36
C22
A   37
C23
A   38
C24
A   39
C25
A   40
C26
A   41
C27
A   42
C28
A   43
C29
A   44
C30
A   45
C31
A   46
C32
A   47
C33
A   48
C34
A   49
C35
A   50
C36
A   51
C37
A   52
C38
A   53
C39
A   54
C40
A   55
C41
A   56
C
A   57
N
A   58
O
A   59
S
M  END
>  <Id>  (75) 
5EG4_5N7_A_504

>  <ChainId>  (75) 
A

>  <AsymId>  (75) 
E

>  <SeqNum>  (75) 
504

>  <Name>  (75) 
(13S,16R)-N-(4-carbamimidoylbenzyl)-16-((N-cyclohexylsulfamoyl)amino)-3,9,15-trioxo-2,10,14-triaza-6(1,4)-piperazina-1,11(1,4)-dibenzenacycloheptadecaphane-13-carboxamide

>  <SystematicName>  (75) 
null

>  <Synonyms>  (75) 
MI-133

>  <Type>  (75) 
NON-POLYMER

>  <Formula>  (75) 
C42 H56 N10 O6 S

>  <ObservedFormula>  (75) 
C42 S N10 O6

>  <MolecularWeight>  (75) 
829.022

>  <ModifiedDate>  (75) 
2016-07-08

>  <Parent>  (75) 


>  <OneLetterCode>  (75) 


>  <SubcomponentList>  (75) 


>  <AmbiguousFlag>  (75) 
N

>  <InsertionCode>  (75) 


>  <InstanceId>  (75) 
5EG4_5N7_A_504

>  <ChemCompId>  (75) 
5N7

>  <PdbId>  (75) 
5EG4

>  <ResidueNumber>  (75) 
504

>  <InChI>  (75) 
InChI=1S/C42H56N10O6S/c43-40(44)32-12-6-31(7-13-32)28-45-41(55)36-26-29-8-14-33(15-9-29)46-38(53)18-20-51-22-24-52(25-23-51)21-19-39(54)47-34-16-10-30(11-17-34)27-37(42(56)48-36)50-59(57,58)49-35-4-2-1-3-5-35/h6-17,35-37,49-50H,1-5,18-28H2,(H3,43,44)(H,45,55)(H,46,53)(H,47,54)(H,48,56)/t36-,37+/m0/s1

>  <InChIKey>  (75) 
HGZHCKIUQIEHRY-PQQNNWGCSA-N

>  <SMILES>  (75) 
[H]/N=C(\c1ccc(cc1)CNC(=O)[C@@H]2Cc3ccc(cc3)NC(=O)CCN4CCN(CCC(=O)Nc5ccc(cc5)C[C@H](C(=O)N2)NS(=O)(=O)NC6CCCCC6)CC4)/N

>  <MissingHeavyAtoms>  (75) 
0

>  <Model>  (75) 
1

>  <AltIds>  (75) 


>  <pKI>  (75) 
7.68

>  <ChemblID>  (75) 
-

>  <standardized_canonical_smiles>  (75) 
N=C(N)c1ccc(CNC(=O)[C@@H]2Cc3ccc(cc3)NC(=O)CCN3CCN(CCC(=O)Nc4ccc(cc4)C[C@@H](NS(=O)(=O)NC4CCCCC4)C(=O)N2)CC3)cc1

$$$$
1Y59_TL1_T_350
     RDKit          3D

 28 31  0  0  0  0  0  0  0  0999 V2000
   46.5760   18.4410   54.2010 N   0  0  0  0  0  0  0  0  0  0  0  0
   45.7060   18.2680   53.2400 C   0  0  0  0  0  0  0  0  0  0  0  0
   45.2300   16.9720   53.1270 N   0  0  0  0  0  0  0  0  0  0  0  0
   45.1750   19.3240   52.3560 C   0  0  0  0  0  0  0  0  0  0  0  0
   44.6260   19.0400   51.0670 C   0  0  0  0  0  0  0  0  0  0  0  0
   44.1460   20.0650   50.2370 C   0  0  0  0  0  0  0  0  0  0  0  0
   44.1860   21.4320   50.6220 C   0  0  0  0  0  0  0  0  0  0  0  0
   44.7090   21.7290   51.9140 C   0  0  0  0  0  0  0  0  0  0  0  0
   44.6430   23.0270   52.4050 O   0  0  0  0  0  0  0  0  0  0  0  0
   43.8190   24.1560   51.8720 C   0  0  0  0  0  0  0  0  0  0  0  0
   44.1720   25.5070   52.6140 C   0  0  0  0  0  0  0  0  0  0  0  0
   42.9690   26.3240   52.4340 O   0  0  0  0  0  0  0  0  0  0  0  0
   41.8320   25.4570   52.2830 C   0  0  0  0  0  0  0  0  0  0  0  0
   40.9920   25.5720   53.5940 C   0  0  0  0  0  0  0  0  0  0  0  0
   39.5930   25.2000   53.3100 O   0  0  0  0  0  0  0  0  0  0  0  0
   38.6910   25.0890   54.3420 C   0  0  0  0  0  0  0  0  0  0  0  0
   37.7660   24.0180   54.2780 C   0  0  0  0  0  0  0  0  0  0  0  0
   36.7890   23.7880   55.2600 C   0  0  0  0  0  0  0  0  0  0  0  0
   36.7550   24.6860   56.3400 C   0  0  0  0  0  0  0  0  0  0  0  0
   37.6020   25.8110   56.3490 C   0  0  0  0  0  0  0  0  0  0  0  0
   37.6550   26.6920   57.5720 C   0  0  0  0  0  0  0  0  0  0  0  0
   38.8150   27.1490   57.9820 N   0  0  0  0  0  0  0  0  0  0  0  0
   36.4660   26.9800   58.1920 N   0  0  0  0  0  0  0  0  0  0  0  0
   38.7270   25.9520   55.4500 C   0  0  0  0  0  0  0  0  0  0  0  0
   41.7040   24.5710   54.5370 C   0  0  0  0  0  0  0  0  0  0  0  0
   42.2240   23.5040   53.6420 O   0  0  0  0  0  0  0  0  0  0  0  0
   42.3080   23.9950   52.2740 C   0  0  0  0  0  0  0  0  0  0  0  0
   45.2540   20.6900   52.7450 C   0  0  0  0  0  0  0  0  0  0  0  0
  2  1  2  0
  3  2  1  0
  4  2  1  0
  5  4  2  0
 28  4  1  0
  6  5  1  0
  7  6  2  0
  8  7  1  0
  9  8  1  0
 28  8  2  0
 10  9  1  0
 11 10  1  0
 27 10  1  0
 12 11  1  0
 13 12  1  0
 14 13  1  0
 27 13  1  0
 15 14  1  0
 25 14  1  0
 16 15  1  0
 17 16  2  0
 24 16  1  0
 18 17  1  0
 19 18  2  0
 20 19  1  0
 21 20  1  0
 24 20  2  0
 22 21  2  0
 23 21  1  0
 26 25  1  0
 27 26  1  0
A    1
N1
A    2
C1
A    3
N2
A    4
C2
A    5
C3
A    6
C4
A    7
C5
A    8
C6
A    9
O1
A   10
C7
A   11
C8
A   12
O2
A   13
C9
A   14
C10
A   15
O3
A   16
C11
A   17
C12
A   18
C13
A   19
C14
A   20
C15
A   21
C16
A   22
N3
A   23
N4
A   24
C17
A   25
C18
A   26
O4
A   27
C19
A   28
C20
M  END
>  <Id>  (76) 
1Y59_TL1_T_350

>  <ChainId>  (76) 
T

>  <AsymId>  (76) 
D

>  <SeqNum>  (76) 
350

>  <Name>  (76) 
2,5-BIS-O-{3-[AMINO(IMINO)METHYL]PHENYL}-1,4:3,6-DIANHYDRO-D-GLUCITOL

>  <SystematicName>  (76) 
3-[[(3R,3aR,6S,6aR)-6-(3-carbamimidoylphenoxy)-2,3,3a,5,6,6a-hexahydrofuro[4,5-b]furan-3-yl]oxy]benzenecarboximidamide

>  <Synonyms>  (76) 
2,5-O,O-BIS-(3',3"-AMIDINOPHENYL)-1,4:3,6-DIANHYDRO-D-SORBITOL

>  <Type>  (76) 
NON-POLYMER

>  <Formula>  (76) 
C20 H22 N4 O4

>  <ObservedFormula>  (76) 
C20 N4 O4

>  <MolecularWeight>  (76) 
382.413

>  <ModifiedDate>  (76) 
2011-06-04

>  <Parent>  (76) 


>  <OneLetterCode>  (76) 


>  <SubcomponentList>  (76) 


>  <AmbiguousFlag>  (76) 
N

>  <InsertionCode>  (76) 


>  <InstanceId>  (76) 
1Y59_TL1_T_350

>  <ChemCompId>  (76) 
TL1

>  <PdbId>  (76) 
1Y59

>  <ResidueNumber>  (76) 
350

>  <InChI>  (76) 
InChI=1S/C20H22N4O4/c21-19(22)11-3-1-5-13(7-11)27-15-9-25-18-16(10-26-17(15)18)28-14-6-2-4-12(8-14)20(23)24/h1-8,15-18H,9-10H2,(H3,21,22)(H3,23,24)/t15-,16+,17-,18-/m1/s1

>  <InChIKey>  (76) 
IBIUTOFGXGGVKQ-XMTFNYHQSA-N

>  <SMILES>  (76) 
c1cc(cc(c1)O[C@@H]2CO[C@H]3[C@@H]2OC[C@@H]3Oc4cccc(c4)C(=N)N)C(=N)N

>  <MissingHeavyAtoms>  (76) 
0

>  <Model>  (76) 
1

>  <AltIds>  (76) 


>  <pKI>  (76) 
5.92

>  <ChemblID>  (76) 
-

>  <standardized_canonical_smiles>  (76) 
N=C(N)c1cccc(O[C@H]2CO[C@@H]3[C@H](Oc4cccc(C(=N)N)c4)CO[C@H]23)c1

$$$$
1BJU_GP6_A_910
     RDKit          3D

 20 21  0  0  0  0  0  0  0  0999 V2000
   -2.7990   13.9840   14.4490 N   0  0  0  0  0  0  0  0  0  0  0  0
   -2.0060   12.2130   15.6660 N   0  0  0  0  0  0  0  0  0  0  0  0
   -2.3010   13.5080   15.5820 C   0  0  0  0  0  0  0  0  0  0  0  0
   -1.8870   14.3700   16.6050 C   0  0  0  0  0  0  0  0  0  0  0  0
   -1.9370   15.7610   16.4670 C   0  0  0  0  0  0  0  0  0  0  0  0
   -1.5410   16.6110   17.5040 C   0  0  0  0  0  0  0  0  0  0  0  0
   -1.0780   16.0860   18.7200 C   0  0  0  0  0  0  0  0  0  0  0  0
   -1.0270   14.6990   18.8660 C   0  0  0  0  0  0  0  0  0  0  0  0
   -1.4250   13.8630   17.8200 C   0  0  0  0  0  0  0  0  0  0  0  0
   -0.6720   16.8760   19.7460 N   0  0  0  0  0  0  0  0  0  0  0  0
    0.2400   17.8600   19.6510 C   0  0  0  0  0  0  0  0  0  0  0  0
    0.7740   18.1990   18.5840 O   0  0  0  0  0  0  0  0  0  0  0  0
    0.5310   18.4530   20.8150 N   0  0  0  0  0  0  0  0  0  0  0  0
    1.5460   19.2940   21.0740 C   0  0  0  0  0  0  0  0  0  0  0  0
    1.3980   20.2380   22.0940 C   0  0  0  0  0  0  0  0  0  0  0  0
    2.4440   21.1080   22.4110 C   0  0  0  0  0  0  0  0  0  0  0  0
    3.6410   21.0470   21.6980 C   0  0  0  0  0  0  0  0  0  0  0  0
    3.7940   20.1190   20.6750 C   0  0  0  0  0  0  0  0  0  0  0  0
    2.7500   19.2470   20.3620 C   0  0  0  0  0  0  0  0  0  0  0  0
    4.9500   22.0990   22.0540 Cl  0  0  0  0  0  0  0  0  0  0  0  0
  3  1  2  0
  3  2  1  0
  4  3  1  0
  5  4  2  0
  9  4  1  0
  6  5  1  0
  7  6  2  0
  8  7  1  0
 10  7  1  0
  9  8  2  0
 11 10  1  0
 12 11  2  0
 13 11  1  0
 14 13  1  0
 15 14  2  0
 19 14  1  0
 16 15  1  0
 17 16  2  0
 18 17  1  0
 20 17  1  0
 19 18  2  0
A    1
N1
A    2
N2
A    3
C1
A    4
C2
A    5
C3
A    6
C4
A    7
C5
A    8
C6
A    9
C7
A   10
N3
A   11
C8
A   12
O1
A   13
N4
A   14
C9
A   15
C10
A   16
C11
A   17
C12
A   18
C13
A   19
C14
A   20
CL
M  END
>  <Id>  (77) 
1BJU_GP6_A_910

>  <ChainId>  (77) 
A

>  <AsymId>  (77) 
D

>  <SeqNum>  (77) 
910

>  <Name>  (77) 
1-(4-AMIDINOPHENYL)-3-(4-CHLOROPHENYL)UREA

>  <SystematicName>  (77) 
1-(4-carbamimidoylphenyl)-3-(4-chlorophenyl)urea

>  <Synonyms>  (77) 


>  <Type>  (77) 
NON-POLYMER

>  <Formula>  (77) 
C14 H13 Cl N4 O

>  <ObservedFormula>  (77) 
C14 Cl N4 O

>  <MolecularWeight>  (77) 
288.732

>  <ModifiedDate>  (77) 
2011-06-04

>  <Parent>  (77) 


>  <OneLetterCode>  (77) 


>  <SubcomponentList>  (77) 


>  <AmbiguousFlag>  (77) 
N

>  <InsertionCode>  (77) 


>  <InstanceId>  (77) 
1BJU_GP6_A_910

>  <ChemCompId>  (77) 
GP6

>  <PdbId>  (77) 
1BJU

>  <ResidueNumber>  (77) 
910

>  <InChI>  (77) 
InChI=1S/C14H13ClN4O/c15-10-3-7-12(8-4-10)19-14(20)18-11-5-1-9(2-6-11)13(16)17/h1-8H,(H3,16,17)(H2,18,19,20)

>  <InChIKey>  (77) 
HQWKMDKTTCPCMQ-UHFFFAOYSA-N

>  <SMILES>  (77) 
[H]/N=C(\c1ccc(cc1)NC(=O)Nc2ccc(cc2)Cl)/N

>  <MissingHeavyAtoms>  (77) 
0

>  <Model>  (77) 
1

>  <AltIds>  (77) 


>  <pKI>  (77) 
5.0

>  <ChemblID>  (77) 
-

>  <standardized_canonical_smiles>  (77) 
N=C(N)c1ccc(NC(=O)Nc2ccc(Cl)cc2)cc1

$$$$
1Y5A_TL2_T_790
     RDKit          3D

 28 31  0  0  0  0  0  0  0  0999 V2000
   12.0820   28.6260   40.7540 N   0  0  0  0  0  0  0  0  0  0  0  0
   11.4590   28.3970   39.5280 C   0  0  0  0  0  0  0  0  0  0  0  0
   12.2660   27.6350   38.4600 C   0  0  0  0  0  0  0  0  0  0  0  0
   11.6660   27.3080   37.2090 C   0  0  0  0  0  0  0  0  0  0  0  0
   12.4190   26.6500   36.2160 C   0  0  0  0  0  0  0  0  0  0  0  0
   13.6410   27.3260   38.6820 C   0  0  0  0  0  0  0  0  0  0  0  0
   14.3870   26.6220   37.7000 C   0  0  0  0  0  0  0  0  0  0  0  0
   13.7780   26.3260   36.4420 C   0  0  0  0  0  0  0  0  0  0  0  0
   14.4320   25.6340   35.3910 O   0  0  0  0  0  0  0  0  0  0  0  0
   15.4690   24.6410   35.7640 C   0  0  0  0  0  0  0  0  0  0  0  0
   15.0140   23.5390   36.7350 C   0  0  0  0  0  0  0  0  0  0  0  0
   14.3190   22.5740   35.8800 O   0  0  0  0  0  0  0  0  0  0  0  0
   15.8470   23.8200   34.5490 C   0  0  0  0  0  0  0  0  0  0  0  0
   14.7450   22.7770   34.5150 C   0  0  0  0  0  0  0  0  0  0  0  0
   15.5000   21.5340   33.9740 C   0  0  0  0  0  0  0  0  0  0  0  0
   14.8630   20.3420   34.5760 O   0  0  0  0  0  0  0  0  0  0  0  0
   17.1070   23.1250   34.6900 O   0  0  0  0  0  0  0  0  0  0  0  0
   13.2060   19.9740   32.7260 C   0  0  0  0  0  0  0  0  0  0  0  0
   16.8970   21.6990   34.6200 C   0  0  0  0  0  0  0  0  0  0  0  0
   13.7240   19.6990   34.0440 C   0  0  0  0  0  0  0  0  0  0  0  0
   13.1530   18.7010   34.8660 C   0  0  0  0  0  0  0  0  0  0  0  0
   11.2300   17.0150   35.3230 C   0  0  0  0  0  0  0  0  0  0  0  0
   11.9670   16.2810   36.2470 N   0  0  0  0  0  0  0  0  0  0  0  0
    9.9720   16.7960   35.2730 N   0  0  0  0  0  0  0  0  0  0  0  0
   12.0540   19.2710   32.3020 C   0  0  0  0  0  0  0  0  0  0  0  0
   11.4250   18.3220   33.1210 C   0  0  0  0  0  0  0  0  0  0  0  0
   11.9380   18.0310   34.4350 C   0  0  0  0  0  0  0  0  0  0  0  0
   10.2890   28.8410   39.3560 N   0  0  0  0  0  0  0  0  0  0  0  0
  2  1  2  0
  3  2  1  0
 28  2  1  0
  4  3  2  0
  6  3  1  0
  5  4  1  0
  8  5  2  0
  7  6  2  0
  8  7  1  0
  9  8  1  0
 10  9  1  0
 11 10  1  0
 13 10  1  0
 12 11  1  0
 14 12  1  0
 14 13  1  0
 17 13  1  0
 15 14  1  0
 16 15  1  0
 19 15  1  0
 20 16  1  0
 19 17  1  0
 20 18  2  0
 25 18  1  0
 21 20  1  0
 27 21  2  0
 23 22  2  0
 24 22  1  0
 27 22  1  0
 26 25  2  0
 27 26  1  0
A    1
N
A    2
C1
A    3
C2
A    4
C3
A    5
C4
A    6
C5
A    7
C6
A    8
C7
A    9
O8
A   10
C9
A   11
C10
A   12
O11
A   13
C11
A   14
C12
A   15
C13
A   16
O14
A   17
O15
A   18
C16
A   19
C17
A   20
C18
A   21
C20
A   22
C21
A   23
N22
A   24
N23
A   25
C24
A   26
C25
A   27
C26
A   28
N27
M  END
>  <Id>  (78) 
1Y5A_TL2_T_790

>  <ChainId>  (78) 
T

>  <AsymId>  (78) 
D

>  <SeqNum>  (78) 
790

>  <Name>  (78) 
2-O-{4-[AMINO(IMINO)METHYL]PHENYL}-5-O-{3-[AMINO(IMINO)METHYL]PHENYL}-1,4:3,6-DIANHYDRO-D-GLUCITOL

>  <SystematicName>  (78) 
4-[[(3S,3aR,6R,6aR)-6-(3-carbamimidoylphenoxy)-2,3,3a,5,6,6a-hexahydrofuro[4,5-b]furan-3-yl]oxy]benzenecarboximidamide

>  <Synonyms>  (78) 
2-O-(4'-AMIDINOPHENYL)-5-O-(3''-AMIDINOPHENYL)-1,4:3,6-DIANHYDRO-D-SORBITOL

>  <Type>  (78) 
NON-POLYMER

>  <Formula>  (78) 
C20 H22 N4 O4

>  <ObservedFormula>  (78) 
C20 N4 O4

>  <MolecularWeight>  (78) 
382.413

>  <ModifiedDate>  (78) 
2011-06-04

>  <Parent>  (78) 


>  <OneLetterCode>  (78) 


>  <SubcomponentList>  (78) 


>  <AmbiguousFlag>  (78) 
N

>  <InsertionCode>  (78) 


>  <InstanceId>  (78) 
1Y5A_TL2_T_790

>  <ChemCompId>  (78) 
TL2

>  <PdbId>  (78) 
1Y5A

>  <ResidueNumber>  (78) 
790

>  <InChI>  (78) 
InChI=1S/C20H22N4O4/c21-19(22)11-4-6-13(7-5-11)27-15-9-25-18-16(10-26-17(15)18)28-14-3-1-2-12(8-14)20(23)24/h1-8,15-18H,9-10H2,(H3,21,22)(H3,23,24)/t15-,16+,17+,18+/m0/s1

>  <InChIKey>  (78) 
DKBAWRNTUZFJKV-BSDSXHPESA-N

>  <SMILES>  (78) 
[H]/N=C(\c1ccc(cc1)O[C@H]2CO[C@H]3[C@@H]2OC[C@H]3Oc4cccc(c4)C(=N)N)/N

>  <MissingHeavyAtoms>  (78) 
0

>  <Model>  (78) 
1

>  <AltIds>  (78) 


>  <pKI>  (78) 
5.88

>  <ChemblID>  (78) 
-

>  <standardized_canonical_smiles>  (78) 
N=C(N)c1ccc(O[C@H]2CO[C@@H]3[C@H](Oc4cccc(C(=N)N)c4)CO[C@H]23)cc1

$$$$
1F0T_PR1_A_304
     RDKit          3D

 30 33  0  0  0  0  0  0  0  0999 V2000
   13.7720   -3.4110   25.0880 C   0  0  0  0  0  0  0  0  0  0  0  0
   14.1560   -3.5440   23.7510 C   0  0  0  0  0  0  0  0  0  0  0  0
   13.3000   -4.1340   22.8220 C   0  0  0  0  0  0  0  0  0  0  0  0
   12.0440   -4.6010   23.2210 C   0  0  0  0  0  0  0  0  0  0  0  0
   11.6700   -4.4620   24.5630 C   0  0  0  0  0  0  0  0  0  0  0  0
   12.5100   -3.8680   25.5270 C   0  0  0  0  0  0  0  0  0  0  0  0
   12.0420   -3.6980   27.0270 C   0  0  0  0  0  0  0  0  0  0  0  0
   10.7640   -3.9510   27.3770 N   0  0  0  0  0  0  0  0  0  0  0  0
   12.9090   -3.2960   27.9690 N   0  0  0  0  0  0  0  0  0  0  0  0
   11.0480   -5.2790   22.2250 C   0  0  0  0  0  0  0  0  0  0  0  0
   13.6830   -4.2570   21.5510 O   0  0  0  0  0  0  0  0  0  0  0  0
   12.8720  -13.0390   24.1350 C   0  0  0  0  0  0  0  0  0  0  0  0
   13.8970  -13.4940   24.9520 C   0  0  0  0  0  0  0  0  0  0  0  0
   15.0640  -14.0690   24.4210 C   0  0  0  0  0  0  0  0  0  0  0  0
   15.2430  -14.2110   23.0270 C   0  0  0  0  0  0  0  0  0  0  0  0
   14.2890  -13.7930   22.1540 N   0  0  0  0  0  0  0  0  0  0  0  0
   13.0650  -13.1940   22.6230 C   0  0  0  0  0  0  0  0  0  0  0  0
   11.9690  -12.6880   21.9200 C   0  0  0  0  0  0  0  0  0  0  0  0
   10.9670  -12.1590   22.8150 C   0  0  0  0  0  0  0  0  0  0  0  0
   11.3720  -12.2880   24.4850 S   0  0  0  0  0  0  0  0  0  0  0  0
   11.0900   -6.7510   22.2170 N   0  0  0  0  0  0  0  0  0  0  0  0
   10.0010   -7.5520   22.3190 C   0  0  0  0  0  0  0  0  0  0  0  0
   10.4840   -8.9760   22.3110 C   0  0  0  0  0  0  0  0  0  0  0  0
   11.7780   -8.8860   21.5170 C   0  0  0  0  0  0  0  0  0  0  0  0
   12.3140   -7.5010   21.8510 C   0  0  0  0  0  0  0  0  0  0  0  0
    9.8950  -10.0120   21.5570 N   0  0  0  0  0  0  0  0  0  0  0  0
    9.4800  -11.4170   22.2470 S   0  0  0  0  0  0  0  0  0  0  0  0
    8.6800  -11.0280   23.3660 O   0  0  0  0  0  0  0  0  0  0  0  0
    8.9380  -12.1760   21.1670 O   0  0  0  0  0  0  0  0  0  0  0  0
    8.8430   -7.1990   22.3950 O   0  0  0  0  0  0  0  0  0  0  0  0
  2  1  2  0
  6  1  1  0
  3  2  1  0
  4  3  2  0
 11  3  1  0
  5  4  1  0
 10  4  1  0
  6  5  2  0
  7  6  1  0
  8  7  2  0
  9  7  1  0
 21 10  1  0
 13 12  2  0
 17 12  1  0
 20 12  1  0
 14 13  1  0
 15 14  2  0
 16 15  1  0
 17 16  2  0
 18 17  1  0
 19 18  2  0
 20 19  1  0
 27 19  1  0
 22 21  1  0
 25 21  1  0
 23 22  1  0
 30 22  2  0
 24 23  1  0
 26 23  1  0
 25 24  1  0
 27 26  1  0
 28 27  2  0
 29 27  2  0
A    1
C1
A    2
C2
A    3
C3
A    4
C4
A    5
C5
A    6
C6
A    7
C10
A    8
N11
A    9
N12
A   10
C13
A   11
O44
A   12
C16
A   13
C17
A   14
C18
A   15
C19
A   16
N20
A   17
C21
A   18
C25
A   19
C26
A   20
S27
A   21
N28
A   22
C29
A   23
C30
A   24
C31
A   25
C32
A   26
N37
A   27
S38
A   28
O39
A   29
O40
A   30
O41
M  END
>  <Id>  (79) 
1F0T_PR1_A_304

>  <ChainId>  (79) 
A

>  <AsymId>  (79) 
E

>  <SeqNum>  (79) 
304

>  <Name>  (79) 
4-HYDROXY-3-[2-OXO-3-(THIENO[3,2-B]PYRIDINE-2-SULFONYLAMINO)-PYRROLIDIN-1-YLMETHYL]-BENZAMIDINE

>  <SystematicName>  (79) 
4-hydroxy-3-[[(3S)-2-oxo-3-(thieno[4,5-b]pyridin-2-ylsulfonylamino)pyrrolidin-1-yl]methyl]benzenecarboximidamide

>  <Synonyms>  (79) 
RPR131247

>  <Type>  (79) 
NON-POLYMER

>  <Formula>  (79) 
C19 H19 N5 O4 S2

>  <ObservedFormula>  (79) 
C19 S2 N5 O4

>  <MolecularWeight>  (79) 
445.515

>  <ModifiedDate>  (79) 
2011-06-04

>  <Parent>  (79) 


>  <OneLetterCode>  (79) 


>  <SubcomponentList>  (79) 


>  <AmbiguousFlag>  (79) 
N

>  <InsertionCode>  (79) 


>  <InstanceId>  (79) 
1F0T_PR1_A_304

>  <ChemCompId>  (79) 
PR1

>  <PdbId>  (79) 
1F0T

>  <ResidueNumber>  (79) 
304

>  <InChI>  (79) 
InChI=1S/C19H19N5O4S2/c20-18(21)11-3-4-15(25)12(8-11)10-24-7-5-13(19(24)26)23-30(27,28)17-9-14-16(29-17)2-1-6-22-14/h1-4,6,8-9,13,23,25H,5,7,10H2,(H3,20,21)/t13-/m0/s1

>  <InChIKey>  (79) 
PQJGWYQPOHCEDO-ZDUSSCGKSA-N

>  <SMILES>  (79) 
c1cc2c(cc(s2)S(=O)(=O)N[C@H]3CCN(C3=O)Cc4cc(ccc4O)C(=N)N)nc1

>  <MissingHeavyAtoms>  (79) 
0

>  <Model>  (79) 
1

>  <AltIds>  (79) 


>  <pKI>  (79) 
6.0

>  <ChemblID>  (79) 
-

>  <standardized_canonical_smiles>  (79) 
N=C(N)c1ccc(O)c(CN2CC[C@H](NS(=O)(=O)c3cc4ncccc4s3)C2=O)c1

$$$$
3AAV_A2C_B_1002
     RDKit          3D

 26 27  0  0  0  0  0  0  0  0999 V2000
   46.6600   38.7010   50.0500 N   0  0  0  0  0  0  0  0  0  0  0  0
   45.8710   37.6290   50.1010 C   0  0  0  0  0  0  0  0  0  0  0  0
   45.0330   37.4400   51.1930 C   0  0  0  0  0  0  0  0  0  0  0  0
   44.9060   38.4490   52.1390 C   0  0  0  0  0  0  0  0  0  0  0  0
   44.0770   38.2660   53.2420 C   0  0  0  0  0  0  0  0  0  0  0  0
   41.4920   34.3040   59.2060 C   0  0  0  0  0  0  0  0  0  0  0  0
   41.2360   33.2430   60.0670 C   0  0  0  0  0  0  0  0  0  0  0  0
   40.0840   32.4830   59.8950 C   0  0  0  0  0  0  0  0  0  0  0  0
   39.5310   32.0800   61.0300 C   0  0  0  0  0  0  0  0  0  0  0  0
   40.2870   32.0980   62.0820 N   0  0  0  0  0  0  0  0  0  0  0  0
   45.8840   36.7480   49.1050 N   0  0  0  0  0  0  0  0  0  0  0  0
   44.3360   36.2450   51.3470 C   0  0  0  0  0  0  0  0  0  0  0  0
   43.5130   36.0640   52.4510 C   0  0  0  0  0  0  0  0  0  0  0  0
   43.3790   37.0740   53.3970 C   0  0  0  0  0  0  0  0  0  0  0  0
   42.5500   36.9090   54.4610 O   0  0  0  0  0  0  0  0  0  0  0  0
   41.2670   34.8550   57.0190 O   0  0  0  0  0  0  0  0  0  0  0  0
   40.6180   34.6050   58.1860 C   0  0  0  0  0  0  0  0  0  0  0  0
   39.4430   33.8520   58.0090 C   0  0  0  0  0  0  0  0  0  0  0  0
   39.2080   32.9030   58.8920 C   0  0  0  0  0  0  0  0  0  0  0  0
   38.2460   31.7640   60.9030 N   0  0  0  0  0  0  0  0  0  0  0  0
   42.8610   34.8510   52.6450 C   0  0  0  0  0  0  0  0  0  0  0  0
   42.0900   34.5860   53.6510 N   0  0  0  0  0  0  0  0  0  0  0  0
   40.6250   34.6270   53.5690 C   0  0  0  0  0  0  0  0  0  0  0  0
   39.9930   33.9730   54.6200 C   0  0  0  0  0  0  0  0  0  0  0  0
   39.1070   34.4550   55.8450 N   0  0  0  0  0  0  0  0  0  0  0  0
   38.3800   34.1370   56.9470 C   0  0  0  0  0  0  0  0  0  0  0  0
  2  1  1  0
  3  2  1  0
 11  2  2  0
  4  3  2  0
 12  3  1  0
  5  4  1  0
 14  5  2  0
  7  6  2  0
 17  6  1  0
  8  7  1  0
  9  8  1  0
 19  8  2  0
 10  9  2  0
 20  9  1  0
 13 12  2  0
 14 13  1  0
 21 13  1  0
 15 14  1  0
 17 16  1  0
 18 17  2  0
 19 18  1  0
 26 18  1  0
 22 21  2  0
 23 22  1  0
 24 23  1  0
 25 24  1  0
 26 25  2  0
A    1
NAA
A    2
CAB
A    3
CAC
A    4
CAD
A    5
CAE
A    6
CAF
A    7
CAG
A    8
CAH
A    9
CAI
A   10
NAJ
A   11
NAK
A   12
CAL
A   13
CAM
A   14
CAN
A   15
OAO
A   16
OAP
A   17
CAQ
A   18
CAR
A   19
CAS
A   20
NAT
A   21
CAU
A   22
NAV
A   23
CAW
A   24
CAX
A   25
NAY
A   26
CAZ
M  END
>  <Id>  (80) 
3AAV_A2C_B_1002

>  <ChainId>  (80) 
B

>  <AsymId>  (80) 
F

>  <SeqNum>  (80) 
1002

>  <Name>  (80) 
3,3'-[ethane-1,2-diylbis(nitrilomethylylidene)]bis(4-hydroxybenzenecarboximidamide)

>  <SystematicName>  (80) 
3-[2-[(5-carbamimidoyl-2-hydroxy-phenyl)methylideneamino]ethyliminomethyl]-4-hydroxy-benzenecarboximidamide

>  <Synonyms>  (80) 


>  <Type>  (80) 
NON-POLYMER

>  <Formula>  (80) 
C18 H20 N6 O2

>  <ObservedFormula>  (80) 
C18 N6 O2

>  <MolecularWeight>  (80) 
352.39

>  <ModifiedDate>  (80) 
2011-06-04

>  <Parent>  (80) 


>  <OneLetterCode>  (80) 


>  <SubcomponentList>  (80) 


>  <AmbiguousFlag>  (80) 
N

>  <InsertionCode>  (80) 


>  <InstanceId>  (80) 
3AAV_A2C_B_1002

>  <ChemCompId>  (80) 
A2C

>  <PdbId>  (80) 
3AAV

>  <ResidueNumber>  (80) 
1002

>  <InChI>  (80) 
InChI=1S/C18H20N6O2/c19-17(20)11-1-3-15(25)13(7-11)9-23-5-6-24-10-14-8-12(18(21)22)2-4-16(14)26/h1-4,7-10,25-26H,5-6H2,(H3,19,20)(H3,21,22)

>  <InChIKey>  (80) 
YUJGWDWOHQDFJV-UHFFFAOYSA-N

>  <SMILES>  (80) 
[H]/N=C(\N)/c1cc(c(cc1)O)C=NCCN=Cc2c(ccc(c2)/C(=N\[H])/N)O

>  <MissingHeavyAtoms>  (80) 
0

>  <Model>  (80) 
1

>  <AltIds>  (80) 


>  <pKI>  (80) 
6.62

>  <ChemblID>  (80) 
-

>  <standardized_canonical_smiles>  (80) 
N=C(N)c1ccc(O)c(/C=N\CC/N=C/c2cc(C(=N)N)ccc2O)c1

$$$$
1QBN_688_A_300
     RDKit          3D

 32 35  0  0  0  0  0  0  0  0999 V2000
    8.4360   25.0980   19.7900 C   0  0  0  0  0  0  0  0  0  0  0  0
    9.2620   26.1940   19.3850 C   0  0  0  0  0  0  0  0  0  0  0  0
   10.6500   25.9330   19.2850 C   0  0  0  0  0  0  0  0  0  0  0  0
   11.0780   24.5730   19.2860 C   0  0  0  0  0  0  0  0  0  0  0  0
   10.2640   23.5490   19.5690 N   0  0  0  0  0  0  0  0  0  0  0  0
    8.9360   23.7950   19.7040 C   0  0  0  0  0  0  0  0  0  0  0  0
   12.3380   24.2640   18.8910 O   0  0  0  0  0  0  0  0  0  0  0  0
    8.1790   22.7170   20.0600 O   0  0  0  0  0  0  0  0  0  0  0  0
    8.7860   27.4790   19.4860 C   0  0  0  0  0  0  0  0  0  0  0  0
    9.5170   28.4530   19.4130 O   0  0  0  0  0  0  0  0  0  0  0  0
    7.4780   27.6860   19.6860 O   0  0  0  0  0  0  0  0  0  0  0  0
    8.7770   21.5570   20.5010 C   0  0  0  0  0  0  0  0  0  0  0  0
    8.5490   20.4910   19.6100 C   0  0  0  0  0  0  0  0  0  0  0  0
    9.0190   19.2080   19.8720 C   0  0  0  0  0  0  0  0  0  0  0  0
    9.7720   18.9710   21.0620 C   0  0  0  0  0  0  0  0  0  0  0  0
   10.0260   20.0430   21.9510 C   0  0  0  0  0  0  0  0  0  0  0  0
    9.5140   21.3370   21.6660 C   0  0  0  0  0  0  0  0  0  0  0  0
    8.7720   18.1590   18.9400 C   0  0  0  0  0  0  0  0  0  0  0  0
    8.0230   18.2430   17.8670 N   0  0  0  0  0  0  0  0  0  0  0  0
    9.3080   16.9500   19.0890 N   0  0  0  0  0  0  0  0  0  0  0  0
    9.8170   22.3350   22.5530 O   0  0  0  0  0  0  0  0  0  0  0  0
   13.4420   25.0430   18.8220 C   0  0  0  0  0  0  0  0  0  0  0  0
   13.5780   26.0610   19.7880 C   0  0  0  0  0  0  0  0  0  0  0  0
   14.7230   26.8870   19.7690 C   0  0  0  0  0  0  0  0  0  0  0  0
   15.6630   26.6870   18.7470 C   0  0  0  0  0  0  0  0  0  0  0  0
   15.5200   25.6990   17.7620 C   0  0  0  0  0  0  0  0  0  0  0  0
   14.3780   24.8600   17.7760 C   0  0  0  0  0  0  0  0  0  0  0  0
   16.4350   25.4490   16.7160 C   0  0  0  0  0  0  0  0  0  0  0  0
   17.5250   26.1450   16.3940 N   0  0  0  0  0  0  0  0  0  0  0  0
   16.5180   24.2260   16.1370 N   0  0  0  0  0  0  0  0  0  0  0  0
   17.6700   24.1240   15.3190 C   0  0  0  0  0  0  0  0  0  0  0  0
   18.2440   25.5550   15.3330 C   0  0  0  0  0  0  0  0  0  0  0  0
  2  1  2  0
  6  1  1  0
  3  2  1  0
  9  2  1  0
  4  3  2  0
  5  4  1  0
  7  4  1  0
  6  5  2  0
  8  6  1  0
 22  7  1  0
 12  8  1  0
 10  9  2  0
 11  9  1  0
 13 12  2  0
 17 12  1  0
 14 13  1  0
 15 14  2  0
 18 14  1  0
 16 15  1  0
 17 16  2  0
 21 17  1  0
 19 18  2  0
 20 18  1  0
 23 22  2  0
 27 22  1  0
 24 23  1  0
 25 24  2  0
 26 25  1  0
 27 26  2  0
 28 26  1  0
 29 28  1  0
 30 28  2  0
 32 29  1  0
 31 30  1  0
 32 31  2  0
A    1
C1
A    2
C2
A    3
C3
A    4
C4
A    5
N5
A    6
C6
A    7
O1
A    8
O2
A    9
C7
A   10
O3
A   11
O4
A   12
C11
A   13
C12
A   14
C13
A   15
C14
A   16
C15
A   17
C16
A   18
C17
A   19
N11
A   20
N12
A   21
O11
A   22
C21
A   23
C22
A   24
C23
A   25
C24
A   26
C25
A   27
C26
A   28
C27
A   29
N21
A   30
N22
A   31
C28
A   32
C29
M  END
>  <Id>  (81) 
1QBN_688_A_300

>  <ChainId>  (81) 
A

>  <AsymId>  (81) 
D

>  <SeqNum>  (81) 
300

>  <Name>  (81) 
2-[AMINO(IMINO)METHYL]-2-HYDROXYPHENOXY]-6-[3-(4,5-DIHYDRO-1H-IMIDAZOL-2-YL)PHENOXY]PYRIDINE-4-CARBOXYLIC ACID

>  <SystematicName>  (81) 
2-(5-carbamimidoyl-2-hydroxy-phenoxy)-6-[3-(1H-imidazol-2-yl)phenoxy]pyridine-4-carboxylic acid

>  <Synonyms>  (81) 
ZK-806688

>  <Type>  (81) 
NON-POLYMER

>  <Formula>  (81) 
C22 H17 N5 O5

>  <ObservedFormula>  (81) 
C22 N5 O5

>  <MolecularWeight>  (81) 
431.401

>  <ModifiedDate>  (81) 
2011-06-04

>  <Parent>  (81) 


>  <OneLetterCode>  (81) 


>  <SubcomponentList>  (81) 


>  <AmbiguousFlag>  (81) 
N

>  <InsertionCode>  (81) 


>  <InstanceId>  (81) 
1QBN_688_A_300

>  <ChemCompId>  (81) 
688

>  <PdbId>  (81) 
1QBN

>  <ResidueNumber>  (81) 
300

>  <InChI>  (81) 
InChI=1S/C22H17N5O5/c23-20(24)12-4-5-16(28)17(9-12)32-19-11-14(22(29)30)10-18(27-19)31-15-3-1-2-13(8-15)21-25-6-7-26-21/h1-11,28H,(H3,23,24)(H,25,26)(H,29,30)

>  <InChIKey>  (81) 
ILFWHJBPGCBXAY-UHFFFAOYSA-N

>  <SMILES>  (81) 
c1cc(cc(c1)Oc2cc(cc(n2)Oc3cc(ccc3O)C(=N)N)C(=O)O)c4[nH]ccn4

>  <MissingHeavyAtoms>  (81) 
0

>  <Model>  (81) 
1

>  <AltIds>  (81) 


>  <pKI>  (81) 
5.85

>  <ChemblID>  (81) 
-

>  <standardized_canonical_smiles>  (81) 
N=C(N)c1ccc(O)c(Oc2cc(C(=O)O)cc(Oc3cccc(-c4ncc[nH]4)c3)n2)c1

$$$$
1GJ6_132_A_246
     RDKit          3D

 26 29  0  0  0  0  0  0  0  0999 V2000
   43.9530   -3.0730   25.6520 C   0  0  0  0  0  0  0  0  0  0  0  0
   43.7760   -1.6610   25.5810 C   0  0  0  0  0  0  0  0  0  0  0  0
   43.5480   -0.9200   26.7570 C   0  0  0  0  0  0  0  0  0  0  0  0
   43.5080   -1.5780   27.9710 C   0  0  0  0  0  0  0  0  0  0  0  0
   43.6690   -2.9190   28.0410 C   0  0  0  0  0  0  0  0  0  0  0  0
   43.9060   -3.7020   26.9130 C   0  0  0  0  0  0  0  0  0  0  0  0
   44.2010   -3.8450   24.4930 C   0  0  0  0  0  0  0  0  0  0  0  0
   43.8320   -5.1100   24.4240 N   0  0  0  0  0  0  0  0  0  0  0  0
   44.8250   -3.2500   23.5110 N   0  0  0  0  0  0  0  0  0  0  0  0
   43.3150   -1.1180   29.1890 N   0  0  0  0  0  0  0  0  0  0  0  0
   43.5800   -3.2680   29.3620 C   0  0  0  0  0  0  0  0  0  0  0  0
   43.3470   -2.0890   30.0550 C   0  0  0  0  0  0  0  0  0  0  0  0
   43.1440   -1.9450   31.4390 C   0  0  0  0  0  0  0  0  0  0  0  0
   42.8930   -3.0760   32.2240 C   0  0  0  0  0  0  0  0  0  0  0  0
   42.6970   -2.9580   33.5990 C   0  0  0  0  0  0  0  0  0  0  0  0
   42.6900   -1.7200   34.1950 C   0  0  0  0  0  0  0  0  0  0  0  0
   42.9380   -0.5650   33.4580 C   0  0  0  0  0  0  0  0  0  0  0  0
   43.1310   -0.6680   32.0570 C   0  0  0  0  0  0  0  0  0  0  0  0
   43.3130    0.4590   31.2760 O   0  0  0  0  0  0  0  0  0  0  0  0
   43.0020    0.6370   34.1840 C   0  0  0  0  0  0  0  0  0  0  0  0
   44.1910    1.3700   34.1310 C   0  0  0  0  0  0  0  0  0  0  0  0
   44.3480    2.5330   34.8770 C   0  0  0  0  0  0  0  0  0  0  0  0
   43.3240    2.9930   35.6900 C   0  0  0  0  0  0  0  0  0  0  0  0
   42.1330    2.2810   35.7530 C   0  0  0  0  0  0  0  0  0  0  0  0
   41.9700    1.1080   35.0030 C   0  0  0  0  0  0  0  0  0  0  0  0
   43.7500   -0.6970   24.0830 Cl  0  0  0  0  0  0  0  0  0  0  0  0
  2  1  2  0
  6  1  1  0
  7  1  1  0
  3  2  1  0
 26  2  1  0
  4  3  2  0
  5  4  1  0
 10  4  1  0
  6  5  2  0
 11  5  1  0
  8  7  1  0
  9  7  2  0
 12 10  1  0
 12 11  2  0
 13 12  1  0
 14 13  2  0
 18 13  1  0
 15 14  1  0
 16 15  2  0
 17 16  1  0
 18 17  2  0
 20 17  1  0
 19 18  1  0
 21 20  2  0
 25 20  1  0
 22 21  1  0
 23 22  2  0
 24 23  1  0
 25 24  2  0
M  CHG  1   9   1
A    1
C1
A    2
C2
A    3
C3
A    4
C4
A    5
C5
A    6
C6
A    7
C7
A    8
N1
A    9
N2
A   10
N3
A   11
C9
A   12
C8
A   13
C1'
A   14
C2'
A   15
C3'
A   16
C4'
A   17
C5'
A   18
C6'
A   19
O6'
A   20
C1B
A   21
C2B
A   22
C3B
A   23
C4B
A   24
C5B
A   25
C6B
A   26
CL2
M  END
>  <Id>  (82) 
1GJ6_132_A_246

>  <ChainId>  (82) 
A

>  <AsymId>  (82) 
C

>  <SeqNum>  (82) 
246

>  <Name>  (82) 
6-CHLORO-2-(2-HYDROXY-BIPHENYL-3-YL)-1H-INDOLE-5-CARBOXAMIDINE

>  <SystematicName>  (82) 
[amino-[6-chloro-2-(2-hydroxy-3-phenyl-phenyl)-1H-indol-5-yl]methylidene]azanium

>  <Synonyms>  (82) 


>  <Type>  (82) 
NON-POLYMER

>  <Formula>  (82) 
C21 H17 Cl N3 O

>  <ObservedFormula>  (82) 
C21 Cl N3 O

>  <MolecularWeight>  (82) 
362.832

>  <ModifiedDate>  (82) 
2011-06-04

>  <Parent>  (82) 


>  <OneLetterCode>  (82) 


>  <SubcomponentList>  (82) 


>  <AmbiguousFlag>  (82) 
N

>  <InsertionCode>  (82) 


>  <InstanceId>  (82) 
1GJ6_132_A_246

>  <ChemCompId>  (82) 
132

>  <PdbId>  (82) 
1GJ6

>  <ResidueNumber>  (82) 
246

>  <InChI>  (82) 
InChI=1S/C21H16ClN3O/c22-17-11-18-13(9-16(17)21(23)24)10-19(25-18)15-8-4-7-14(20(15)26)12-5-2-1-3-6-12/h1-11,25-26H,(H3,23,24)/p+1

>  <InChIKey>  (82) 
FEKRWNWZMOSVBX-UHFFFAOYSA-O

>  <SMILES>  (82) 
c1ccc(cc1)c2cccc(c2O)c3cc4cc(c(cc4[nH]3)Cl)C(=[NH2+])N

>  <MissingHeavyAtoms>  (82) 
0

>  <Model>  (82) 
1

>  <AltIds>  (82) 


>  <pKI>  (82) 
6.82

>  <ChemblID>  (82) 
-

>  <standardized_canonical_smiles>  (82) 
NC(=[NH2+])c1cc2cc(-c3cccc(-c4ccccc4)c3O)[nH]c2cc1Cl

$$$$
1RXP_169_A_991
     RDKit          3D

 30 30  0  0  0  0  0  0  0  0999 V2000
   -0.7800   18.7820   27.1110 N   0  0  0  0  0  0  0  0  0  0  0  0
   -2.6570   14.1180   14.1700 N   0  0  0  0  0  0  0  0  0  0  0  0
   -1.7580   19.6610   29.0960 O   0  0  0  0  0  0  0  0  0  0  0  0
    0.7520   21.4590   29.1230 C   0  0  0  0  0  0  0  0  0  0  0  0
   -1.1460   16.1930   20.4830 C   0  0  0  0  0  0  0  0  0  0  0  0
   -0.3200   17.8640   23.3350 C   0  0  0  0  0  0  0  0  0  0  0  0
   -0.9530   19.8050   28.2040 C   0  0  0  0  0  0  0  0  0  0  0  0
    0.8190   19.2190   25.2040 C   0  0  0  0  0  0  0  0  0  0  0  0
   -0.6830   15.5500   19.1450 C   0  0  0  0  0  0  0  0  0  0  0  0
    0.3170   16.8710   23.5740 O   0  0  0  0  0  0  0  0  0  0  0  0
   -0.4520   17.5140   20.9210 C   0  0  0  0  0  0  0  0  0  0  0  0
   -0.9520   13.6370   17.3850 C   0  0  0  0  0  0  0  0  0  0  0  0
   -2.0120   13.5910   15.2660 C   0  0  0  0  0  0  0  0  0  0  0  0
   -1.6300   12.2950   14.9500 N   0  0  0  0  0  0  0  0  0  0  0  0
    1.9140   20.4920   29.4290 C   0  0  0  0  0  0  0  0  0  0  0  0
   -0.3900   18.9840   24.3160 N   0  0  0  0  0  0  0  0  0  0  0  0
   -0.9680   15.1650   21.5720 C   0  0  0  0  0  0  0  0  0  0  0  0
    0.4570   18.7500   19.0970 O   0  0  0  0  0  0  0  0  0  0  0  0
   -0.1210   20.8820   28.0640 N   0  0  0  0  0  0  0  0  0  0  0  0
   -1.2950   14.1690   18.7860 C   0  0  0  0  0  0  0  0  0  0  0  0
   -0.6400   18.5270   19.8500 C   0  0  0  0  0  0  0  0  0  0  0  0
   -1.6830   19.0990   19.6510 O   0  0  0  0  0  0  0  0  0  0  0  0
   -0.0580   21.7020   30.4130 C   0  0  0  0  0  0  0  0  0  0  0  0
   -1.8020   14.1970   16.3760 N   0  0  0  0  0  0  0  0  0  0  0  0
    0.6210   18.5060   26.5600 C   0  0  0  0  0  0  0  0  0  0  0  0
    1.3380   22.8030   28.6460 C   0  0  0  0  0  0  0  0  0  0  0  0
   -1.0250   18.0520   22.1610 N   0  0  0  0  0  0  0  0  0  0  0  0
   -1.7320   19.3560   24.8910 C   0  0  0  0  0  0  0  0  0  0  0  0
   -1.8680   14.8670   22.3280 O   0  0  0  0  0  0  0  0  0  0  0  0
   -1.9520   18.5330   26.1750 C   0  0  0  0  0  0  0  0  0  0  0  0
  4 15  1  0
  4 19  1  0
 23  4  1  0
  1  7  1  0
 21 22  1  0
 30 28  1  0
  6 16  1  0
 28 16  1  0
  5 11  1  0
  8 16  1  0
  6 27  1  0
 12 24  1  0
  7  3  2  0
 13 14  2  0
 25  8  1  0
  5  9  1  0
  9 20  1  0
  7 19  1  0
 24 13  1  0
 13  2  1  0
  5 17  1  0
  6 10  2  0
 17 29  2  0
  4 26  1  0
  1 30  1  0
 27 11  1  0
  1 25  1  0
 11 21  1  0
 20 12  1  0
 21 18  2  0
A    1
N1
A    2
N5
A    3
O5
A    4
C2
A    5
C10
A    6
C9
A    7
C18
A    8
C8
A    9
C13
A   10
O1
A   11
C12
A   12
C15
A   13
C16
A   14
N6
A   15
C4
A   16
N2
A   17
C11
A   18
O4
A   19
N7
A   20
C14
A   21
C17
A   22
O3
A   23
C1
A   24
N4
A   25
C7
A   26
C3
A   27
N3
A   28
C6
A   29
O2
A   30
C5
M  END
>  <InstanceId>  (83) 
1RXP_169

>  <ChemCompId>  (83) 
169

>  <PdbId>  (83) 
1RXP

>  <ChainId>  (83) 
A

>  <ResidueNumber>  (83) 
991

>  <InsertionCode>  (83) 
null

>  <Model>  (83) 
1

>  <AltIds>  (83) 


>  <MissingHeavyAtoms>  (83) 
0

>  <ObservedFormula>  (83) 
C18 N7 O5

>  <AsymId>  (83) 
D

>  <SeqNum>  (83) 
991

>  <Name>  (83) 
1-(4-TERT-BUTYLCARBAMOYL-PIPERAZINE-1-CARBONYL)-3-(3-GUANIDINO-PROPYL)-4-OXO-AZETIDINE-2-CARBOXYLIC ACID

>  <SystematicName>  (83) 
(2S,3R)-2-[[4-(tert-butylcarbamoyl)piperazin-1-yl]carbonylamino]-6-carbamimidamido-3-methanoyl-hexanoic acid

>  <Synonyms>  (83) 


>  <Type>  (83) 
NON-POLYMER

>  <Formula>  (83) 
C18 H33 N7 O5

>  <MolecularWeight>  (83) 
427.499

>  <ModifiedDate>  (83) 
2011-06-04

>  <Parent>  (83) 


>  <OneLetterCode>  (83) 


>  <SubcomponentList>  (83) 


>  <AmbiguousFlag>  (83) 
N

>  <InChI>  (83) 
InChI=1S/C18H33N7O5/c1-18(2,3)23-17(30)25-9-7-24(8-10-25)16(29)22-13(14(27)28)12(11-26)5-4-6-21-15(19)20/h11-13H,4-10H2,1-3H3,(H,22,29)(H,23,30)(H,27,28)(H4,19,20,21)/t12-,13-/m0/s1

>  <InChIKey>  (83) 
BVNQCAHTTOIOEK-STQMWFEESA-N

>  <SMILES>  (83) 
CC(C)(C)NC(=O)N1CCN(CC1)C(=O)N[C@@H]([C@@H](CCCNC(=N)N)C=O)C(=O)O

>  <pKI>  (83) 
7.68

>  <ChemblID>  (83) 
-

>  <standardized_canonical_smiles>  (83) 
NC(=[NH2+])c1cc2cc(-c3cccc(OC4CCCC4)c3[O-])[nH]c2cc1Cl

$$$$
1O2Q_991_A_246
     RDKit          3D

 26 29  0  0  0  0  0  0  0  0999 V2000
   43.9640   -3.0750   25.5290 C   0  0  0  0  0  0  0  0  0  0  0  0
   43.8000   -1.6630   25.4310 C   0  0  0  0  0  0  0  0  0  0  0  0
   43.7680   -0.6590   23.9520 Cl  0  0  0  0  0  0  0  0  0  0  0  0
   43.5860   -0.8950   26.5910 C   0  0  0  0  0  0  0  0  0  0  0  0
   43.5190   -1.5400   27.8050 C   0  0  0  0  0  0  0  0  0  0  0  0
   43.7030   -2.8790   27.9000 C   0  0  0  0  0  0  0  0  0  0  0  0
   43.9140   -3.6880   26.7890 C   0  0  0  0  0  0  0  0  0  0  0  0
   44.2150   -3.8470   24.3760 C   0  0  0  0  0  0  0  0  0  0  0  0
   43.7330   -5.0680   24.2340 N   0  0  0  0  0  0  0  0  0  0  0  0
   44.9630   -3.2720   23.4650 N   0  0  0  0  0  0  0  0  0  0  0  0
   43.3540   -1.0440   29.0030 N   0  0  0  0  0  0  0  0  0  0  0  0
   43.5970   -3.2060   29.2180 C   0  0  0  0  0  0  0  0  0  0  0  0
   43.3790   -2.0170   29.8920 C   0  0  0  0  0  0  0  0  0  0  0  0
   43.1930   -1.8760   31.2810 C   0  0  0  0  0  0  0  0  0  0  0  0
   43.0120   -3.0130   32.0980 C   0  0  0  0  0  0  0  0  0  0  0  0
   42.8350   -2.8620   33.4840 C   0  0  0  0  0  0  0  0  0  0  0  0
   42.8390   -1.6020   34.0650 C   0  0  0  0  0  0  0  0  0  0  0  0
   43.0170   -0.4610   33.2800 C   0  0  0  0  0  0  0  0  0  0  0  0
   43.0550    0.8110   33.8230 O   0  0  0  0  0  0  0  0  0  0  0  0
   43.1920   -0.5890   31.8840 C   0  0  0  0  0  0  0  0  0  0  0  0
   43.3530    0.5560   31.1180 O   0  0  0  0  0  0  0  0  0  0  0  0
   42.5230    2.4500   35.3400 C   0  0  0  0  0  0  0  0  0  0  0  0
   43.1280    1.0880   35.2210 C   0  0  0  0  0  0  0  0  0  0  0  0
   44.5850    1.1810   35.6840 C   0  0  0  0  0  0  0  0  0  0  0  0
   44.8640    2.6230   35.9920 C   0  0  0  0  0  0  0  0  0  0  0  0
   43.5380    3.3190   36.0270 C   0  0  0  0  0  0  0  0  0  0  0  0
  2  1  2  0
  7  1  1  0
  8  1  1  0
  3  2  1  0
  4  2  1  0
  5  4  2  0
  6  5  1  0
 11  5  1  0
  7  6  2  0
 12  6  1  0
  9  8  1  0
 10  8  2  0
 13 11  1  0
 13 12  2  0
 14 13  1  0
 15 14  2  0
 20 14  1  0
 16 15  1  0
 17 16  2  0
 18 17  1  0
 19 18  1  0
 20 18  2  0
 23 19  1  0
 21 20  1  0
 23 22  1  0
 26 22  1  0
 24 23  1  0
 25 24  1  0
 26 25  1  0
M  CHG  2  10   1  21  -1
A    1
C1
A    2
C2
A    3
CL2
A    4
C3
A    5
C4
A    6
C5
A    7
C6
A    8
C7
A    9
N1
A   10
N2
A   11
N3
A   12
CN4
A   13
C8
A   14
C1'
A   15
C2'
A   16
C3'
A   17
C4'
A   18
C5'
A   19
O5'
A   20
C6'
A   21
O6'
A   22
C1B
A   23
C2B
A   24
C3B
A   25
C4B
A   26
C5B
M  END
>  <Id>  (84) 
1O2Q_991_A_246

>  <ChainId>  (84) 
A

>  <AsymId>  (84) 
D

>  <SeqNum>  (84) 
246

>  <Name>  (84) 
2-{5-[AMINO(IMINIO)METHYL]-6-CHLORO-1H-INDOL-2-YL}-6-(CYCLOPENTYLOXY)BENZENOLATE

>  <SystematicName>  (84) 
2-[5-(amino-azaniumylidene-methyl)-6-chloro-1H-indol-2-yl]-6-cyclopentyloxy-phenolate

>  <Synonyms>  (84) 
CRA_10991

>  <Type>  (84) 
NON-POLYMER

>  <Formula>  (84) 
C20 H20 Cl N3 O2

>  <ObservedFormula>  (84) 
C20 Cl N3 O2

>  <MolecularWeight>  (84) 
369.845

>  <ModifiedDate>  (84) 
2011-06-04

>  <Parent>  (84) 


>  <OneLetterCode>  (84) 


>  <SubcomponentList>  (84) 


>  <AmbiguousFlag>  (84) 
N

>  <InsertionCode>  (84) 


>  <InstanceId>  (84) 
1O2Q_991_A_246

>  <ChemCompId>  (84) 
991

>  <PdbId>  (84) 
1O2Q

>  <ResidueNumber>  (84) 
246

>  <InChI>  (84) 
InChI=1S/C20H20ClN3O2/c21-15-10-16-11(8-14(15)20(22)23)9-17(24-16)13-6-3-7-18(19(13)25)26-12-4-1-2-5-12/h3,6-10,12,24-25H,1-2,4-5H2,(H3,22,23)

>  <InChIKey>  (84) 
QXAURVOBXQBPAP-UHFFFAOYSA-N

>  <SMILES>  (84) 
c1cc(c(c(c1)OC2CCCC2)[O-])c3cc4cc(c(cc4[nH]3)Cl)C(=[NH2+])N

>  <MissingHeavyAtoms>  (84) 
0

>  <Model>  (84) 
1

>  <AltIds>  (84) 


>  <pKI>  (84) 
7.68

>  <ChemblID>  (84) 
-

>  <standardized_canonical_smiles>  (84) 
NC(=[NH2+])c1cc2cc(-c3cccc(OC4CCCC4)c3[O-])[nH]c2cc1Cl

$$$$
1C5S_ESX_A_246
     RDKit          3D

 12 13  0  0  0  0  0  0  0  0999 V2000
   46.0670   18.1780   54.2560 C   0  0  0  0  0  0  0  0  0  0  0  0
   45.8750   19.2150   53.3870 C   0  0  0  0  0  0  0  0  0  0  0  0
   46.5760   18.4090   55.4250 N   0  0  0  0  0  0  0  0  0  0  0  0
   45.7310   17.0050   53.8170 N   0  0  0  0  0  0  0  0  0  0  0  0
   45.0680   18.9640   51.7180 S   0  0  0  0  0  0  0  0  0  0  0  0
   45.2060   20.6700   51.2840 C   0  0  0  0  0  0  0  0  0  0  0  0
   45.8110   21.3380   52.3400 C   0  0  0  0  0  0  0  0  0  0  0  0
   46.1700   20.5660   53.4500 C   0  0  0  0  0  0  0  0  0  0  0  0
   44.8030   21.3060   50.1230 C   0  0  0  0  0  0  0  0  0  0  0  0
   45.0050   22.6670   49.9900 C   0  0  0  0  0  0  0  0  0  0  0  0
   45.6130   23.3700   51.0240 C   0  0  0  0  0  0  0  0  0  0  0  0
   46.0110   22.7070   52.1910 C   0  0  0  0  0  0  0  0  0  0  0  0
  2  1  1  0
  3  1  1  0
  4  1  2  0
  5  2  1  0
  8  2  2  0
  6  5  1  0
  7  6  2  0
  9  6  1  0
  8  7  1  0
 12  7  1  0
 10  9  2  0
 11 10  1  0
 12 11  2  0
M  CHG  1   4   1
A    1
C0
A    2
C1
A    3
N1
A    4
N2
A    5
S2
A    6
C3
A    7
C4
A    8
C5
A    9
C6
A   10
C7
A   11
C8
A   12
C9
M  END
>  <Id>  (85) 
1C5S_ESX_A_246

>  <ChainId>  (85) 
A

>  <AsymId>  (85) 
I

>  <SeqNum>  (85) 
246

>  <Name>  (85) 
BENZO[B]THIOPHENE-2-CARBOXAMIDINE

>  <SystematicName>  (85) 
[amino-(1-benzothiophen-2-yl)methylidene]azanium

>  <Synonyms>  (85) 


>  <Type>  (85) 
NON-POLYMER

>  <Formula>  (85) 
C9 H9 N2 S

>  <ObservedFormula>  (85) 
C9 S N2

>  <MolecularWeight>  (85) 
177.246

>  <ModifiedDate>  (85) 
2011-06-04

>  <Parent>  (85) 


>  <OneLetterCode>  (85) 


>  <SubcomponentList>  (85) 


>  <AmbiguousFlag>  (85) 
N

>  <InsertionCode>  (85) 


>  <InstanceId>  (85) 
1C5S_ESX_A_246

>  <ChemCompId>  (85) 
ESX

>  <PdbId>  (85) 
1C5S

>  <ResidueNumber>  (85) 
246

>  <InChI>  (85) 
InChI=1S/C9H8N2S/c10-9(11)8-5-6-3-1-2-4-7(6)12-8/h1-5H,(H3,10,11)/p+1

>  <InChIKey>  (85) 
JZWDLUGQTRKBNA-UHFFFAOYSA-O

>  <SMILES>  (85) 
c1ccc2c(c1)cc(s2)C(=[NH2+])N

>  <MissingHeavyAtoms>  (85) 
0

>  <Model>  (85) 
1

>  <AltIds>  (85) 


>  <pKI>  (85) 
6.0

>  <ChemblID>  (85) 
-

>  <standardized_canonical_smiles>  (85) 
NC(=[NH2+])c1cc2ccccc2s1

$$$$
1C5U_ESP_A_246
     RDKit          3D

 12 13  0  0  0  0  0  0  0  0999 V2000
   46.0630   18.1970   54.1260 C   0  0  0  0  0  0  0  0  0  0  0  0
   45.7390   19.2340   53.2930 C   0  0  0  0  0  0  0  0  0  0  0  0
   46.7610   18.5080   55.1660 N   0  0  0  0  0  0  0  0  0  0  0  0
   45.6750   16.9990   53.8080 N   0  0  0  0  0  0  0  0  0  0  0  0
   45.0910   19.0510   51.7200 S   0  0  0  0  0  0  0  0  0  0  0  0
   44.9500   20.5180   51.3250 C   0  0  0  0  0  0  0  0  0  0  0  0
   45.3910   21.3150   52.3810 C   0  0  0  0  0  0  0  0  0  0  0  0
   45.8210   20.5950   53.4590 C   0  0  0  0  0  0  0  0  0  0  0  0
   44.4940   21.1030   50.2210 N   0  0  0  0  0  0  0  0  0  0  0  0
   44.4460   22.4260   50.0810 C   0  0  0  0  0  0  0  0  0  0  0  0
   44.8870   23.2220   51.1430 C   0  0  0  0  0  0  0  0  0  0  0  0
   45.3650   22.6740   52.2970 C   0  0  0  0  0  0  0  0  0  0  0  0
  2  1  1  0
  3  1  1  0
  4  1  2  0
  5  2  1  0
  8  2  2  0
  6  5  1  0
  7  6  2  0
  9  6  1  0
  8  7  1  0
 12  7  1  0
 10  9  2  0
 11 10  1  0
 12 11  2  0
M  CHG  1   4   1
A    1
C0
A    2
C1
A    3
N1
A    4
N2
A    5
S2
A    6
C3
A    7
C4
A    8
C5
A    9
N6
A   10
C7
A   11
C8
A   12
C9
M  END
>  <Id>  (86) 
1C5U_ESP_A_246

>  <ChainId>  (86) 
A

>  <AsymId>  (86) 
F

>  <SeqNum>  (86) 
246

>  <Name>  (86) 
THIENO[2,3-B]PYRIDINE-2-CARBOXAMIDINE

>  <SystematicName>  (86) 
(amino-thieno[5,4-b]pyridin-2-yl-methylidene)azanium

>  <Synonyms>  (86) 


>  <Type>  (86) 
NON-POLYMER

>  <Formula>  (86) 
C8 H8 N3 S

>  <ObservedFormula>  (86) 
C8 S N3

>  <MolecularWeight>  (86) 
178.234

>  <ModifiedDate>  (86) 
2011-06-04

>  <Parent>  (86) 


>  <OneLetterCode>  (86) 


>  <SubcomponentList>  (86) 


>  <AmbiguousFlag>  (86) 
N

>  <InsertionCode>  (86) 


>  <InstanceId>  (86) 
1C5U_ESP_A_246

>  <ChemCompId>  (86) 
ESP

>  <PdbId>  (86) 
1C5U

>  <ResidueNumber>  (86) 
246

>  <InChI>  (86) 
InChI=1S/C8H7N3S/c9-7(10)6-4-5-2-1-3-11-8(5)12-6/h1-4H,(H3,9,10)/p+1

>  <InChIKey>  (86) 
GZEJMYFXZMUAEC-UHFFFAOYSA-O

>  <SMILES>  (86) 
c1cc2cc(sc2nc1)C(=[NH2+])N

>  <MissingHeavyAtoms>  (86) 
0

>  <Model>  (86) 
1

>  <AltIds>  (86) 


>  <pKI>  (86) 
4.1

>  <ChemblID>  (86) 
-

>  <standardized_canonical_smiles>  (86) 
NC(=[NH2+])c1cc2cccnc2s1

$$$$
1C5T_ESP_A_246
     RDKit          3D

 12 13  0  0  0  0  0  0  0  0999 V2000
   46.0350   18.3120   54.2970 C   0  0  0  0  0  0  0  0  0  0  0  0
   45.6910   19.3400   53.4410 C   0  0  0  0  0  0  0  0  0  0  0  0
   46.7870   18.6030   55.3100 N   0  0  0  0  0  0  0  0  0  0  0  0
   45.5950   17.1170   54.0300 N   0  0  0  0  0  0  0  0  0  0  0  0
   44.8720   18.9810   51.8860 S   0  0  0  0  0  0  0  0  0  0  0  0
   44.7830   20.6750   51.4060 C   0  0  0  0  0  0  0  0  0  0  0  0
   45.3740   21.3960   52.4370 C   0  0  0  0  0  0  0  0  0  0  0  0
   45.8550   20.7030   53.5260 C   0  0  0  0  0  0  0  0  0  0  0  0
   44.2810   21.1930   50.3030 N   0  0  0  0  0  0  0  0  0  0  0  0
   44.3460   22.5100   50.1950 C   0  0  0  0  0  0  0  0  0  0  0  0
   44.9170   23.3330   51.1690 C   0  0  0  0  0  0  0  0  0  0  0  0
   45.4390   22.7660   52.3180 C   0  0  0  0  0  0  0  0  0  0  0  0
  2  1  1  0
  3  1  1  0
  4  1  2  0
  5  2  1  0
  8  2  2  0
  6  5  1  0
  7  6  2  0
  9  6  1  0
  8  7  1  0
 12  7  1  0
 10  9  2  0
 11 10  1  0
 12 11  2  0
M  CHG  1   4   1
A    1
C0
A    2
C1
A    3
N1
A    4
N2
A    5
S2
A    6
C3
A    7
C4
A    8
C5
A    9
N6
A   10
C7
A   11
C8
A   12
C9
M  END
>  <Id>  (87) 
1C5T_ESP_A_246

>  <ChainId>  (87) 
A

>  <AsymId>  (87) 
C

>  <SeqNum>  (87) 
246

>  <Name>  (87) 
THIENO[2,3-B]PYRIDINE-2-CARBOXAMIDINE

>  <SystematicName>  (87) 
(amino-thieno[5,4-b]pyridin-2-yl-methylidene)azanium

>  <Synonyms>  (87) 


>  <Type>  (87) 
NON-POLYMER

>  <Formula>  (87) 
C8 H8 N3 S

>  <ObservedFormula>  (87) 
C8 S N3

>  <MolecularWeight>  (87) 
178.234

>  <ModifiedDate>  (87) 
2011-06-04

>  <Parent>  (87) 


>  <OneLetterCode>  (87) 


>  <SubcomponentList>  (87) 


>  <AmbiguousFlag>  (87) 
N

>  <InsertionCode>  (87) 


>  <InstanceId>  (87) 
1C5T_ESP_A_246

>  <ChemCompId>  (87) 
ESP

>  <PdbId>  (87) 
1C5T

>  <ResidueNumber>  (87) 
246

>  <InChI>  (87) 
InChI=1S/C8H7N3S/c9-7(10)6-4-5-2-1-3-11-8(5)12-6/h1-4H,(H3,9,10)/p+1

>  <InChIKey>  (87) 
GZEJMYFXZMUAEC-UHFFFAOYSA-O

>  <SMILES>  (87) 
c1cc2cc(sc2nc1)C(=[NH2+])N

>  <MissingHeavyAtoms>  (87) 
0

>  <Model>  (87) 
1

>  <AltIds>  (87) 


>  <pKI>  (87) 
4.1

>  <ChemblID>  (87) 
-

>  <standardized_canonical_smiles>  (87) 
NC(=[NH2+])c1cc2cccnc2s1

$$$$
1C5Q_ESI_A_246
     RDKit          3D

 13 14  0  0  0  0  0  0  0  0999 V2000
   44.1310   -3.9270   25.1420 C   0  0  0  0  0  0  0  0  0  0  0  0
   43.9570   -3.2790   26.4120 C   0  0  0  0  0  0  0  0  0  0  0  0
   43.8910   -5.2050   24.9160 N   0  0  0  0  0  0  0  0  0  0  0  0
   44.5590   -3.1560   24.1610 N   0  0  0  0  0  0  0  0  0  0  0  0
   44.1630   -1.5820   26.6040 S   0  0  0  0  0  0  0  0  0  0  0  0
   43.7610   -1.8940   28.2420 C   0  0  0  0  0  0  0  0  0  0  0  0
   43.5070   -3.2050   28.5550 C   0  0  0  0  0  0  0  0  0  0  0  0
   43.6000   -4.1210   27.4660 C   0  0  0  0  0  0  0  0  0  0  0  0
   43.6750   -0.9380   29.2610 C   0  0  0  0  0  0  0  0  0  0  0  0
   43.3450   -1.3510   30.5550 C   0  0  0  0  0  0  0  0  0  0  0  0
   43.0830   -2.7060   30.8330 C   0  0  0  0  0  0  0  0  0  0  0  0
   43.1690   -3.6950   29.8180 C   0  0  0  0  0  0  0  0  0  0  0  0
   42.8350   -5.6220   30.4050 I   0  0  0  0  0  0  0  0  0  0  0  0
  2  1  1  0
  3  1  1  0
  4  1  2  0
  5  2  1  0
  8  2  2  0
  6  5  1  0
  7  6  2  0
  9  6  1  0
  8  7  1  0
 12  7  1  0
 10  9  2  0
 11 10  1  0
 12 11  2  0
 13 12  1  0
M  CHG  1   4   1
A    1
C0
A    2
C1
A    3
N1
A    4
N2
A    5
S2
A    6
C3
A    7
C4
A    8
C5
A    9
C6
A   10
C7
A   11
C8
A   12
C9
A   13
I9
M  END
>  <Id>  (88) 
1C5Q_ESI_A_246

>  <ChainId>  (88) 
A

>  <AsymId>  (88) 
D

>  <SeqNum>  (88) 
246

>  <Name>  (88) 
4-IODOBENZO[B]THIOPHENE-2-CARBOXAMIDINE

>  <SystematicName>  (88) 
[amino-(4-iodo-1-benzothiophen-2-yl)methylidene]azanium

>  <Synonyms>  (88) 


>  <Type>  (88) 
NON-POLYMER

>  <Formula>  (88) 
C9 H8 I N2 S

>  <ObservedFormula>  (88) 
C9 S I N2

>  <MolecularWeight>  (88) 
303.143

>  <ModifiedDate>  (88) 
2011-06-04

>  <Parent>  (88) 


>  <OneLetterCode>  (88) 


>  <SubcomponentList>  (88) 


>  <AmbiguousFlag>  (88) 
N

>  <InsertionCode>  (88) 


>  <InstanceId>  (88) 
1C5Q_ESI_A_246

>  <ChemCompId>  (88) 
ESI

>  <PdbId>  (88) 
1C5Q

>  <ResidueNumber>  (88) 
246

>  <InChI>  (88) 
InChI=1S/C9H7IN2S/c10-6-2-1-3-7-5(6)4-8(13-7)9(11)12/h1-4H,(H3,11,12)/p+1

>  <InChIKey>  (88) 
YERQOXAYAFWFEJ-UHFFFAOYSA-O

>  <SMILES>  (88) 
c1cc2c(cc(s2)C(=[NH2+])N)c(c1)I

>  <MissingHeavyAtoms>  (88) 
0

>  <Model>  (88) 
1

>  <AltIds>  (88) 


>  <pKI>  (88) 
6.36

>  <ChemblID>  (88) 
-

>  <standardized_canonical_smiles>  (88) 
NC(=[NH2+])c1cc2c(I)cccc2s1

$$$$
1C5R_ESI_A_246
     RDKit          3D

 13 14  0  0  0  0  0  0  0  0999 V2000
   46.1260   18.0990   54.2240 C   0  0  0  0  0  0  0  0  0  0  0  0
   45.9020   19.1230   53.3350 C   0  0  0  0  0  0  0  0  0  0  0  0
   46.5720   18.3270   55.4250 N   0  0  0  0  0  0  0  0  0  0  0  0
   45.8850   16.9090   53.7750 N   0  0  0  0  0  0  0  0  0  0  0  0
   44.8630   18.9000   51.8400 S   0  0  0  0  0  0  0  0  0  0  0  0
   45.1480   20.6060   51.4190 C   0  0  0  0  0  0  0  0  0  0  0  0
   45.9560   21.2150   52.3510 C   0  0  0  0  0  0  0  0  0  0  0  0
   46.3750   20.4090   53.4110 C   0  0  0  0  0  0  0  0  0  0  0  0
   44.6650   21.3080   50.3230 C   0  0  0  0  0  0  0  0  0  0  0  0
   44.9900   22.6500   50.1570 C   0  0  0  0  0  0  0  0  0  0  0  0
   45.8000   23.2730   51.0820 C   0  0  0  0  0  0  0  0  0  0  0  0
   46.2860   22.5680   52.1890 C   0  0  0  0  0  0  0  0  0  0  0  0
   47.4410   23.5760   53.5080 I   0  0  0  0  0  0  0  0  0  0  0  0
  2  1  1  0
  3  1  1  0
  4  1  2  0
  5  2  1  0
  8  2  2  0
  6  5  1  0
  7  6  2  0
  9  6  1  0
  8  7  1  0
 12  7  1  0
 10  9  2  0
 11 10  1  0
 12 11  2  0
 13 12  1  0
M  CHG  1   4   1
A    1
C0
A    2
C1
A    3
N1
A    4
N2
A    5
S2
A    6
C3
A    7
C4
A    8
C5
A    9
C6
A   10
C7
A   11
C8
A   12
C9
A   13
I9
M  END
>  <Id>  (89) 
1C5R_ESI_A_246

>  <ChainId>  (89) 
A

>  <AsymId>  (89) 
F

>  <SeqNum>  (89) 
246

>  <Name>  (89) 
4-IODOBENZO[B]THIOPHENE-2-CARBOXAMIDINE

>  <SystematicName>  (89) 
[amino-(4-iodo-1-benzothiophen-2-yl)methylidene]azanium

>  <Synonyms>  (89) 


>  <Type>  (89) 
NON-POLYMER

>  <Formula>  (89) 
C9 H8 I N2 S

>  <ObservedFormula>  (89) 
C9 S I N2

>  <MolecularWeight>  (89) 
303.143

>  <ModifiedDate>  (89) 
2011-06-04

>  <Parent>  (89) 


>  <OneLetterCode>  (89) 


>  <SubcomponentList>  (89) 


>  <AmbiguousFlag>  (89) 
N

>  <InsertionCode>  (89) 


>  <InstanceId>  (89) 
1C5R_ESI_A_246

>  <ChemCompId>  (89) 
ESI

>  <PdbId>  (89) 
1C5R

>  <ResidueNumber>  (89) 
246

>  <InChI>  (89) 
InChI=1S/C9H7IN2S/c10-6-2-1-3-7-5(6)4-8(13-7)9(11)12/h1-4H,(H3,11,12)/p+1

>  <InChIKey>  (89) 
YERQOXAYAFWFEJ-UHFFFAOYSA-O

>  <SMILES>  (89) 
c1cc2c(cc(s2)C(=[NH2+])N)c(c1)I

>  <MissingHeavyAtoms>  (89) 
0

>  <Model>  (89) 
1

>  <AltIds>  (89) 


>  <pKI>  (89) 
6.36

>  <ChemblID>  (89) 
-

>  <standardized_canonical_smiles>  (89) 
NC(=[NH2+])c1cc2c(I)cccc2s1

$$$$
1O2M_762_A_246
     RDKit          3D

 26 29  0  0  0  0  0  0  0  0999 V2000
   44.0220   -2.9050   25.8020 C   0  0  0  0  0  0  0  0  0  0  0  0
   43.9720   -1.4910   25.7320 C   0  0  0  0  0  0  0  0  0  0  0  0
   43.9690   -0.6000   24.1760 Cl  0  0  0  0  0  0  0  0  0  0  0  0
   43.8820   -0.7350   26.9230 C   0  0  0  0  0  0  0  0  0  0  0  0
   43.8410   -1.4120   28.1270 C   0  0  0  0  0  0  0  0  0  0  0  0
   43.8830   -2.7570   28.1970 C   0  0  0  0  0  0  0  0  0  0  0  0
   43.9760   -3.5300   27.0400 C   0  0  0  0  0  0  0  0  0  0  0  0
   44.1430   -3.6910   24.6420 C   0  0  0  0  0  0  0  0  0  0  0  0
   43.7720   -4.9560   24.6010 N   0  0  0  0  0  0  0  0  0  0  0  0
   44.6760   -3.1030   23.6010 N   0  0  0  0  0  0  0  0  0  0  0  0
   43.7750   -1.0200   29.3630 N   0  0  0  0  0  0  0  0  0  0  0  0
   43.8440   -3.2150   29.4430 N   0  0  0  0  0  0  0  0  0  0  0  0
   43.7760   -2.0800   30.1300 C   0  0  0  0  0  0  0  0  0  0  0  0
   43.6100   -2.0090   31.5120 C   0  0  0  0  0  0  0  0  0  0  0  0
   43.2500   -3.1460   32.2350 C   0  0  0  0  0  0  0  0  0  0  0  0
   43.0790   -3.0740   33.6210 C   0  0  0  0  0  0  0  0  0  0  0  0
   43.2670   -1.8750   34.2890 C   0  0  0  0  0  0  0  0  0  0  0  0
   43.6300   -0.7200   33.5870 C   0  0  0  0  0  0  0  0  0  0  0  0
   43.8030   -0.7850   32.1930 C   0  0  0  0  0  0  0  0  0  0  0  0
   44.1600    0.3510   31.4800 O   0  0  0  0  0  0  0  0  0  0  0  0
   43.8250    0.4730   34.2900 C   0  0  0  0  0  0  0  0  0  0  0  0
   44.6070    0.4850   35.4520 C   0  0  0  0  0  0  0  0  0  0  0  0
   44.8060    1.6770   36.1620 C   0  0  0  0  0  0  0  0  0  0  0  0
   44.2300    2.8520   35.7180 C   0  0  0  0  0  0  0  0  0  0  0  0
   43.4570    2.8460   34.5710 C   0  0  0  0  0  0  0  0  0  0  0  0
   43.2520    1.6650   33.8570 C   0  0  0  0  0  0  0  0  0  0  0  0
  2  1  2  0
  7  1  1  0
  8  1  1  0
  3  2  1  0
  4  2  1  0
  5  4  2  0
  6  5  1  0
 11  5  1  0
  7  6  2  0
 12  6  1  0
  9  8  1  0
 10  8  2  0
 13 11  1  0
 13 12  2  0
 14 13  1  0
 15 14  2  0
 19 14  1  0
 16 15  1  0
 17 16  2  0
 18 17  1  0
 19 18  2  0
 21 18  1  0
 20 19  1  0
 22 21  2  0
 26 21  1  0
 23 22  1  0
 24 23  2  0
 25 24  1  0
 26 25  2  0
M  CHG  2  10   1  20  -1
A    1
C1
A    2
C2
A    3
CL2
A    4
C3
A    5
C4
A    6
C5
A    7
C6
A    8
C7
A    9
N1
A   10
N2
A   11
N3
A   12
N4
A   13
C8
A   14
C1'
A   15
C2'
A   16
C3'
A   17
C4'
A   18
C5'
A   19
C6'
A   20
O6'
A   21
C1B
A   22
C2B
A   23
C3B
A   24
C4B
A   25
C5B
A   26
C6B
M  END
>  <Id>  (90) 
1O2M_762_A_246

>  <ChainId>  (90) 
A

>  <AsymId>  (90) 
D

>  <SeqNum>  (90) 
246

>  <Name>  (90) 
3-{5-[AMINO(IMINIO)METHYL]-6-CHLORO-1H-BENZIMIDAZOL-2-YL}-1,1'-BIPHENYL-2-OLATE

>  <SystematicName>  (90) 
2-[5-(amino-azaniumylidene-methyl)-6-chloro-1H-benzimidazol-2-yl]-6-phenyl-phenolate

>  <Synonyms>  (90) 
CRA_10762

>  <Type>  (90) 
NON-POLYMER

>  <Formula>  (90) 
C20 H15 Cl N4 O

>  <ObservedFormula>  (90) 
C20 Cl N4 O

>  <MolecularWeight>  (90) 
362.812

>  <ModifiedDate>  (90) 
2011-06-04

>  <Parent>  (90) 


>  <OneLetterCode>  (90) 


>  <SubcomponentList>  (90) 


>  <AmbiguousFlag>  (90) 
N

>  <InsertionCode>  (90) 


>  <InstanceId>  (90) 
1O2M_762_A_246

>  <ChemCompId>  (90) 
762

>  <PdbId>  (90) 
1O2M

>  <ResidueNumber>  (90) 
246

>  <InChI>  (90) 
InChI=1S/C20H15ClN4O/c21-15-10-17-16(9-14(15)19(22)23)24-20(25-17)13-8-4-7-12(18(13)26)11-5-2-1-3-6-11/h1-10,26H,(H3,22,23)(H,24,25)

>  <InChIKey>  (90) 
RPGVMAPDADAHPV-UHFFFAOYSA-N

>  <MissingHeavyAtoms>  (90) 
0

>  <Model>  (90) 
1

>  <AltIds>  (90) 


>  <pKI>  (90) 
6.09

>  <ChemblID>  (90) 
-

>  <standardized_canonical_smiles>  (90) 
NC(=[NH2+])c1cc2nc(-c3cccc(-c4ccccc4)c3[O-])[nH]c2cc1Cl

$$$$
1O2N_762_A_246
     RDKit          3D

 26 29  0  0  0  0  0  0  0  0999 V2000
   44.0050   -3.0860   25.8460 C   0  0  0  0  0  0  0  0  0  0  0  0
   43.9260   -1.6580   25.7880 C   0  0  0  0  0  0  0  0  0  0  0  0
   43.8690   -0.6970   24.2750 Cl  0  0  0  0  0  0  0  0  0  0  0  0
   43.8260   -0.9270   26.9940 C   0  0  0  0  0  0  0  0  0  0  0  0
   43.8060   -1.6100   28.2000 C   0  0  0  0  0  0  0  0  0  0  0  0
   43.8730   -2.9430   28.2680 C   0  0  0  0  0  0  0  0  0  0  0  0
   43.9770   -3.7180   27.1020 C   0  0  0  0  0  0  0  0  0  0  0  0
   44.1440   -3.8730   24.6740 C   0  0  0  0  0  0  0  0  0  0  0  0
   43.7440   -5.1240   24.5990 N   0  0  0  0  0  0  0  0  0  0  0  0
   44.7180   -3.2880   23.6550 N   0  0  0  0  0  0  0  0  0  0  0  0
   43.7060   -1.2310   29.4370 N   0  0  0  0  0  0  0  0  0  0  0  0
   43.8160   -3.4090   29.5060 N   0  0  0  0  0  0  0  0  0  0  0  0
   43.7390   -2.2910   30.2130 C   0  0  0  0  0  0  0  0  0  0  0  0
   43.5740   -2.2280   31.6150 C   0  0  0  0  0  0  0  0  0  0  0  0
   43.2160   -3.3600   32.3690 C   0  0  0  0  0  0  0  0  0  0  0  0
   43.0430   -3.2690   33.7540 C   0  0  0  0  0  0  0  0  0  0  0  0
   43.2110   -2.0590   34.3970 C   0  0  0  0  0  0  0  0  0  0  0  0
   43.5800   -0.9280   33.6700 C   0  0  0  0  0  0  0  0  0  0  0  0
   43.7540   -1.0110   32.2820 C   0  0  0  0  0  0  0  0  0  0  0  0
   44.0890    0.1190   31.5480 O   0  0  0  0  0  0  0  0  0  0  0  0
   43.7660    0.2810   34.3380 C   0  0  0  0  0  0  0  0  0  0  0  0
   44.7950    0.3870   35.2740 C   0  0  0  0  0  0  0  0  0  0  0  0
   44.9900    1.5860   35.9620 C   0  0  0  0  0  0  0  0  0  0  0  0
   44.1760    2.6770   35.7120 C   0  0  0  0  0  0  0  0  0  0  0  0
   43.1740    2.5780   34.7750 C   0  0  0  0  0  0  0  0  0  0  0  0
   42.9590    1.3830   34.0900 C   0  0  0  0  0  0  0  0  0  0  0  0
  2  1  2  0
  7  1  1  0
  8  1  1  0
  3  2  1  0
  4  2  1  0
  5  4  2  0
  6  5  1  0
 11  5  1  0
  7  6  2  0
 12  6  1  0
  9  8  1  0
 10  8  2  0
 13 11  1  0
 13 12  2  0
 14 13  1  0
 15 14  2  0
 19 14  1  0
 16 15  1  0
 17 16  2  0
 18 17  1  0
 19 18  2  0
 21 18  1  0
 20 19  1  0
 22 21  2  0
 26 21  1  0
 23 22  1  0
 24 23  2  0
 25 24  1  0
 26 25  2  0
M  CHG  2  10   1  20  -1
A    1
C1
A    2
C2
A    3
CL2
A    4
C3
A    5
C4
A    6
C5
A    7
C6
A    8
C7
A    9
N1
A   10
N2
A   11
N3
A   12
N4
A   13
C8
A   14
C1'
A   15
C2'
A   16
C3'
A   17
C4'
A   18
C5'
A   19
C6'
A   20
O6'
A   21
C1B
A   22
C2B
A   23
C3B
A   24
C4B
A   25
C5B
A   26
C6B
M  END
>  <Id>  (91) 
1O2N_762_A_246

>  <ChainId>  (91) 
A

>  <AsymId>  (91) 
D

>  <SeqNum>  (91) 
246

>  <Name>  (91) 
3-{5-[AMINO(IMINIO)METHYL]-6-CHLORO-1H-BENZIMIDAZOL-2-YL}-1,1'-BIPHENYL-2-OLATE

>  <SystematicName>  (91) 
2-[5-(amino-azaniumylidene-methyl)-6-chloro-1H-benzimidazol-2-yl]-6-phenyl-phenolate

>  <Synonyms>  (91) 
CRA_10762

>  <Type>  (91) 
NON-POLYMER

>  <Formula>  (91) 
C20 H15 Cl N4 O

>  <ObservedFormula>  (91) 
C20 Cl N4 O

>  <MolecularWeight>  (91) 
362.812

>  <ModifiedDate>  (91) 
2011-06-04

>  <Parent>  (91) 


>  <OneLetterCode>  (91) 


>  <SubcomponentList>  (91) 


>  <AmbiguousFlag>  (91) 
N

>  <InsertionCode>  (91) 


>  <InstanceId>  (91) 
1O2N_762_A_246

>  <ChemCompId>  (91) 
762

>  <PdbId>  (91) 
1O2N

>  <ResidueNumber>  (91) 
246

>  <InChI>  (91) 
InChI=1S/C20H15ClN4O/c21-15-10-17-16(9-14(15)19(22)23)24-20(25-17)13-8-4-7-12(18(13)26)11-5-2-1-3-6-11/h1-10,26H,(H3,22,23)(H,24,25)

>  <InChIKey>  (91) 
RPGVMAPDADAHPV-UHFFFAOYSA-N

>  <SMILES>  (91) 
c1ccc(cc1)c2cccc(c2[O-])c3[nH]c4cc(c(cc4n3)C(=[NH2+])N)Cl

>  <MissingHeavyAtoms>  (91) 
0

>  <Model>  (91) 
1

>  <AltIds>  (91) 


>  <pKI>  (91) 
6.09

>  <ChemblID>  (91) 
-

>  <standardized_canonical_smiles>  (91) 
NC(=[NH2+])c1cc2nc(-c3cccc(-c4ccccc4)c3[O-])[nH]c2cc1Cl

$$$$
1O2L_762_A_246
     RDKit          3D

 26 29  0  0  0  0  0  0  0  0999 V2000
   44.3240   -3.0430   25.6560 C   0  0  0  0  0  0  0  0  0  0  0  0
   44.2490   -1.6280   25.6510 C   0  0  0  0  0  0  0  0  0  0  0  0
   44.1190   -0.5990   24.1860 Cl  0  0  0  0  0  0  0  0  0  0  0  0
   44.1710   -0.9350   26.8760 C   0  0  0  0  0  0  0  0  0  0  0  0
   44.1540   -1.6630   28.0560 C   0  0  0  0  0  0  0  0  0  0  0  0
   44.2240   -2.9920   28.0890 C   0  0  0  0  0  0  0  0  0  0  0  0
   44.3170   -3.7170   26.9070 C   0  0  0  0  0  0  0  0  0  0  0  0
   44.4320   -3.7600   24.4240 C   0  0  0  0  0  0  0  0  0  0  0  0
   43.9940   -4.9990   24.2600 N   0  0  0  0  0  0  0  0  0  0  0  0
   45.0210   -3.1230   23.4490 N   0  0  0  0  0  0  0  0  0  0  0  0
   44.1000   -1.3030   29.2930 N   0  0  0  0  0  0  0  0  0  0  0  0
   44.1940   -3.4800   29.3120 N   0  0  0  0  0  0  0  0  0  0  0  0
   44.1090   -2.3700   30.0430 C   0  0  0  0  0  0  0  0  0  0  0  0
   43.9820   -2.2860   31.4680 C   0  0  0  0  0  0  0  0  0  0  0  0
   43.6250   -3.4170   32.2230 C   0  0  0  0  0  0  0  0  0  0  0  0
   43.4290   -3.3150   33.6040 C   0  0  0  0  0  0  0  0  0  0  0  0
   43.5870   -2.1110   34.2480 C   0  0  0  0  0  0  0  0  0  0  0  0
   43.9550   -0.9660   33.5610 C   0  0  0  0  0  0  0  0  0  0  0  0
   44.1470   -1.0580   32.1580 C   0  0  0  0  0  0  0  0  0  0  0  0
   44.4980    0.0360   31.4090 O   0  0  0  0  0  0  0  0  0  0  0  0
   44.1530    0.2090   34.3250 C   0  0  0  0  0  0  0  0  0  0  0  0
   44.9270    0.1200   35.4990 C   0  0  0  0  0  0  0  0  0  0  0  0
   45.1690    1.2400   36.3090 C   0  0  0  0  0  0  0  0  0  0  0  0
   44.6450    2.4720   35.9610 C   0  0  0  0  0  0  0  0  0  0  0  0
   43.8840    2.5790   34.8120 C   0  0  0  0  0  0  0  0  0  0  0  0
   43.6350    1.4600   33.9960 C   0  0  0  0  0  0  0  0  0  0  0  0
  2  1  2  0
  7  1  1  0
  8  1  1  0
  3  2  1  0
  4  2  1  0
  5  4  2  0
  6  5  1  0
 11  5  1  0
  7  6  2  0
 12  6  1  0
  9  8  1  0
 10  8  2  0
 13 11  1  0
 13 12  2  0
 14 13  1  0
 15 14  2  0
 19 14  1  0
 16 15  1  0
 17 16  2  0
 18 17  1  0
 19 18  2  0
 21 18  1  0
 20 19  1  0
 22 21  2  0
 26 21  1  0
 23 22  1  0
 24 23  2  0
 25 24  1  0
 26 25  2  0
M  CHG  2  10   1  20  -1
A    1
C1
A    2
C2
A    3
CL2
A    4
C3
A    5
C4
A    6
C5
A    7
C6
A    8
C7
A    9
N1
A   10
N2
A   11
N3
A   12
N4
A   13
C8
A   14
C1'
A   15
C2'
A   16
C3'
A   17
C4'
A   18
C5'
A   19
C6'
A   20
O6'
A   21
C1B
A   22
C2B
A   23
C3B
A   24
C4B
A   25
C5B
A   26
C6B
M  END
>  <Id>  (92) 
1O2L_762_A_246

>  <ChainId>  (92) 
A

>  <AsymId>  (92) 
C

>  <SeqNum>  (92) 
246

>  <Name>  (92) 
3-{5-[AMINO(IMINIO)METHYL]-6-CHLORO-1H-BENZIMIDAZOL-2-YL}-1,1'-BIPHENYL-2-OLATE

>  <SystematicName>  (92) 
2-[5-(amino-azaniumylidene-methyl)-6-chloro-1H-benzimidazol-2-yl]-6-phenyl-phenolate

>  <Synonyms>  (92) 
CRA_10762

>  <Type>  (92) 
NON-POLYMER

>  <Formula>  (92) 
C20 H15 Cl N4 O

>  <ObservedFormula>  (92) 
C20 Cl N4 O

>  <MolecularWeight>  (92) 
362.812

>  <ModifiedDate>  (92) 
2011-06-04

>  <Parent>  (92) 


>  <OneLetterCode>  (92) 


>  <SubcomponentList>  (92) 


>  <AmbiguousFlag>  (92) 
N

>  <InsertionCode>  (92) 


>  <InstanceId>  (92) 
1O2L_762_A_246

>  <ChemCompId>  (92) 
762

>  <PdbId>  (92) 
1O2L

>  <ResidueNumber>  (92) 
246

>  <InChI>  (92) 
InChI=1S/C20H15ClN4O/c21-15-10-17-16(9-14(15)19(22)23)24-20(25-17)13-8-4-7-12(18(13)26)11-5-2-1-3-6-11/h1-10,26H,(H3,22,23)(H,24,25)

>  <InChIKey>  (92) 
RPGVMAPDADAHPV-UHFFFAOYSA-N

>  <SMILES>  (92) 
c1ccc(cc1)c2cccc(c2[O-])c3[nH]c4cc(c(cc4n3)C(=[NH2+])N)Cl

>  <MissingHeavyAtoms>  (92) 
0

>  <Model>  (92) 
1

>  <AltIds>  (92) 


>  <pKI>  (92) 
6.09

>  <ChemblID>  (92) 
-

>  <standardized_canonical_smiles>  (92) 
NC(=[NH2+])c1cc2nc(-c3cccc(-c4ccccc4)c3[O-])[nH]c2cc1Cl

$$$$
1GI2_122_A_246
     RDKit          3D

 19 21  0  0  0  0  0  0  0  0999 V2000
   29.3370   14.9870   16.9550 C   0  0  0  0  0  0  0  0  0  0  0  0
   28.8330   15.8160   17.9910 C   0  0  0  0  0  0  0  0  0  0  0  0
   28.5440   15.3060   19.2510 C   0  0  0  0  0  0  0  0  0  0  0  0
   28.7640   13.9630   19.4350 C   0  0  0  0  0  0  0  0  0  0  0  0
   29.2470   13.1370   18.4720 C   0  0  0  0  0  0  0  0  0  0  0  0
   29.5450   13.6220   17.2040 C   0  0  0  0  0  0  0  0  0  0  0  0
   29.6050   15.5370   15.6840 C   0  0  0  0  0  0  0  0  0  0  0  0
   30.3300   14.8580   14.8190 N   0  0  0  0  0  0  0  0  0  0  0  0
   29.1240   16.7280   15.3840 N   0  0  0  0  0  0  0  0  0  0  0  0
   28.5900   13.2270   20.4700 N   0  0  0  0  0  0  0  0  0  0  0  0
   29.3750   11.8940   18.8960 N   0  0  0  0  0  0  0  0  0  0  0  0
   28.9460   12.0120   20.1630 C   0  0  0  0  0  0  0  0  0  0  0  0
   28.8040   10.9690   21.0950 C   0  0  0  0  0  0  0  0  0  0  0  0
   29.4020    9.7290   20.8710 C   0  0  0  0  0  0  0  0  0  0  0  0
   29.2430    8.7160   21.8150 C   0  0  0  0  0  0  0  0  0  0  0  0
   28.4970    8.9340   22.9670 C   0  0  0  0  0  0  0  0  0  0  0  0
   27.9030   10.1600   23.1960 C   0  0  0  0  0  0  0  0  0  0  0  0
   28.0530   11.1720   22.2700 C   0  0  0  0  0  0  0  0  0  0  0  0
   27.4600   12.3770   22.5390 O   0  0  0  0  0  0  0  0  0  0  0  0
  2  1  2  0
  6  1  1  0
  7  1  1  0
  3  2  1  0
  4  3  2  0
  5  4  1  0
 10  4  1  0
  6  5  2  0
 11  5  1  0
  8  7  1  0
  9  7  2  0
 12 10  2  0
 12 11  1  0
 13 12  1  0
 14 13  2  0
 18 13  1  0
 15 14  1  0
 16 15  2  0
 17 16  1  0
 18 17  2  0
 19 18  1  0
M  CHG  1   9   1
A    1
C1
A    2
C2
A    3
C3
A    4
C4
A    5
C5
A    6
C6
A    7
C7
A    8
N1
A    9
N2
A   10
N3
A   11
N4
A   12
C8
A   13
C1'
A   14
C2'
A   15
C3'
A   16
C4'
A   17
C5'
A   18
C6'
A   19
O6'
M  END
>  <Id>  (93) 
1GI2_122_A_246

>  <ChainId>  (93) 
A

>  <AsymId>  (93) 
D

>  <SeqNum>  (93) 
246

>  <Name>  (93) 
2-(2-HYDROXY-PHENYL)-3H-BENZOIMIDAZOLE-5-CARBOXAMIDINE

>  <SystematicName>  (93) 
[amino-[2-(2-hydroxyphenyl)-3H-benzimidazol-5-yl]methylidene]azanium

>  <Synonyms>  (93) 


>  <Type>  (93) 
NON-POLYMER

>  <Formula>  (93) 
C14 H13 N4 O

>  <ObservedFormula>  (93) 
C14 N4 O

>  <MolecularWeight>  (93) 
253.279

>  <ModifiedDate>  (93) 
2011-06-04

>  <Parent>  (93) 


>  <OneLetterCode>  (93) 


>  <SubcomponentList>  (93) 


>  <AmbiguousFlag>  (93) 
N

>  <InsertionCode>  (93) 


>  <InstanceId>  (93) 
1GI2_122_A_246

>  <ChemCompId>  (93) 
122

>  <PdbId>  (93) 
1GI2

>  <ResidueNumber>  (93) 
246

>  <InChI>  (93) 
InChI=1S/C14H12N4O/c15-13(16)8-5-6-10-11(7-8)18-14(17-10)9-3-1-2-4-12(9)19/h1-7,19H,(H3,15,16)(H,17,18)/p+1

>  <InChIKey>  (93) 
URJKRCBBKTXOHS-UHFFFAOYSA-O

>  <SMILES>  (93) 
c1ccc(c(c1)c2[nH]c3cc(ccc3n2)C(=[NH2+])N)O

>  <MissingHeavyAtoms>  (93) 
0

>  <Model>  (93) 
1

>  <AltIds>  (93) 


>  <pKI>  (93) 
7.19

>  <ChemblID>  (93) 
-

>  <standardized_canonical_smiles>  (93) 
NC(=[NH2+])c1ccc2nc(-c3ccccc3O)[nH]c2c1

$$$$
1GI4_122_A_246
     RDKit          3D

 19 21  0  0  0  0  0  0  0  0999 V2000
   43.8450   -2.6200   26.3150 C   0  0  0  0  0  0  0  0  0  0  0  0
   44.3910   -1.3120   26.5250 C   0  0  0  0  0  0  0  0  0  0  0  0
   44.2550   -0.5740   27.7130 C   0  0  0  0  0  0  0  0  0  0  0  0
   43.5460   -1.2100   28.6920 C   0  0  0  0  0  0  0  0  0  0  0  0
   43.0360   -2.4460   28.5270 C   0  0  0  0  0  0  0  0  0  0  0  0
   43.1400   -3.1860   27.3870 C   0  0  0  0  0  0  0  0  0  0  0  0
   44.0280   -3.3280   25.1170 C   0  0  0  0  0  0  0  0  0  0  0  0
   43.8400   -4.6310   25.0870 N   0  0  0  0  0  0  0  0  0  0  0  0
   44.3860   -2.6840   24.0310 N   0  0  0  0  0  0  0  0  0  0  0  0
   43.3130   -0.7180   29.8950 N   0  0  0  0  0  0  0  0  0  0  0  0
   42.4440   -2.7370   29.6330 N   0  0  0  0  0  0  0  0  0  0  0  0
   42.6130   -1.7180   30.4190 C   0  0  0  0  0  0  0  0  0  0  0  0
   42.0620   -1.7300   31.7660 C   0  0  0  0  0  0  0  0  0  0  0  0
   41.1150   -2.7470   32.1220 C   0  0  0  0  0  0  0  0  0  0  0  0
   40.5390   -2.8090   33.3720 C   0  0  0  0  0  0  0  0  0  0  0  0
   40.8740   -1.8690   34.3340 C   0  0  0  0  0  0  0  0  0  0  0  0
   41.7850   -0.8480   34.0790 C   0  0  0  0  0  0  0  0  0  0  0  0
   42.3750   -0.7780   32.8230 C   0  0  0  0  0  0  0  0  0  0  0  0
   43.2710    0.2670   32.7590 O   0  0  0  0  0  0  0  0  0  0  0  0
  2  1  2  0
  6  1  1  0
  7  1  1  0
  3  2  1  0
  4  3  2  0
  5  4  1  0
 10  4  1  0
  6  5  2  0
 11  5  1  0
  8  7  1  0
  9  7  2  0
 12 10  2  0
 12 11  1  0
 13 12  1  0
 14 13  2  0
 18 13  1  0
 15 14  1  0
 16 15  2  0
 17 16  1  0
 18 17  2  0
 19 18  1  0
M  CHG  1   9   1
A    1
C1
A    2
C2
A    3
C3
A    4
C4
A    5
C5
A    6
C6
A    7
C7
A    8
N1
A    9
N2
A   10
N3
A   11
N4
A   12
C8
A   13
C1'
A   14
C2'
A   15
C3'
A   16
C4'
A   17
C5'
A   18
C6'
A   19
O6'
M  END
>  <Id>  (94) 
1GI4_122_A_246

>  <ChainId>  (94) 
A

>  <AsymId>  (94) 
E

>  <SeqNum>  (94) 
246

>  <Name>  (94) 
2-(2-HYDROXY-PHENYL)-3H-BENZOIMIDAZOLE-5-CARBOXAMIDINE

>  <SystematicName>  (94) 
[amino-[2-(2-hydroxyphenyl)-3H-benzimidazol-5-yl]methylidene]azanium

>  <Synonyms>  (94) 


>  <Type>  (94) 
NON-POLYMER

>  <Formula>  (94) 
C14 H13 N4 O

>  <ObservedFormula>  (94) 
C14 N4 O

>  <MolecularWeight>  (94) 
253.279

>  <ModifiedDate>  (94) 
2011-06-04

>  <Parent>  (94) 


>  <OneLetterCode>  (94) 


>  <SubcomponentList>  (94) 


>  <AmbiguousFlag>  (94) 
N

>  <InsertionCode>  (94) 


>  <InstanceId>  (94) 
1GI4_122_A_246

>  <ChemCompId>  (94) 
122

>  <PdbId>  (94) 
1GI4

>  <ResidueNumber>  (94) 
246

>  <InChI>  (94) 
InChI=1S/C14H12N4O/c15-13(16)8-5-6-10-11(7-8)18-14(17-10)9-3-1-2-4-12(9)19/h1-7,19H,(H3,15,16)(H,17,18)/p+1

>  <InChIKey>  (94) 
URJKRCBBKTXOHS-UHFFFAOYSA-O

>  <SMILES>  (94) 
c1ccc(c(c1)c2[nH]c3cc(ccc3n2)C(=[NH2+])N)O

>  <MissingHeavyAtoms>  (94) 
0

>  <Model>  (94) 
1

>  <AltIds>  (94) 


>  <pKI>  (94) 
7.19

>  <ChemblID>  (94) 
-

>  <standardized_canonical_smiles>  (94) 
NC(=[NH2+])c1ccc2nc(-c3ccccc3O)[nH]c2c1

$$$$
1C2J_BAK_A_246
     RDKit          3D

 26 29  0  0  0  0  0  0  0  0999 V2000
   45.2240   19.6330   52.8080 C   0  0  0  0  0  0  0  0  0  0  0  0
   44.7390   19.2850   51.5030 C   0  0  0  0  0  0  0  0  0  0  0  0
   44.3740   20.2670   50.5480 C   0  0  0  0  0  0  0  0  0  0  0  0
   44.5100   21.5830   50.9420 C   0  0  0  0  0  0  0  0  0  0  0  0
   44.9660   21.9240   52.1810 C   0  0  0  0  0  0  0  0  0  0  0  0
   45.3240   20.9980   53.1220 C   0  0  0  0  0  0  0  0  0  0  0  0
   45.6060   18.6810   53.7620 C   0  0  0  0  0  0  0  0  0  0  0  0
   44.5910   23.6390   51.1100 C   0  0  0  0  0  0  0  0  0  0  0  0
   44.5660   25.0170   50.8370 C   0  0  0  0  0  0  0  0  0  0  0  0
   46.3570   19.0390   54.7640 N   0  0  0  0  0  0  0  0  0  0  0  0
   45.2210   17.4390   53.6220 N   0  0  0  0  0  0  0  0  0  0  0  0
   44.2710   22.6920   50.2780 N   0  0  0  0  0  0  0  0  0  0  0  0
   44.9870   23.2280   52.2570 N   0  0  0  0  0  0  0  0  0  0  0  0
   43.2750   26.5620   45.4490 C   0  0  0  0  0  0  0  0  0  0  0  0
   43.4450   27.8750   45.9910 C   0  0  0  0  0  0  0  0  0  0  0  0
   43.7800   28.0940   47.3400 C   0  0  0  0  0  0  0  0  0  0  0  0
   43.9390   26.9760   48.1200 C   0  0  0  0  0  0  0  0  0  0  0  0
   43.7810   25.7340   47.6170 C   0  0  0  0  0  0  0  0  0  0  0  0
   43.4530   25.4650   46.3140 C   0  0  0  0  0  0  0  0  0  0  0  0
   42.9480   26.3740   44.1150 C   0  0  0  0  0  0  0  0  0  0  0  0
   44.2650   25.6050   49.6120 C   0  0  0  0  0  0  0  0  0  0  0  0
   42.5340   25.2010   43.6960 N   0  0  0  0  0  0  0  0  0  0  0  0
   43.0750   27.3850   43.2910 N   0  0  0  0  0  0  0  0  0  0  0  0
   44.2470   26.8930   49.3920 N   0  0  0  0  0  0  0  0  0  0  0  0
   43.9900   24.8880   48.5710 N   0  0  0  0  0  0  0  0  0  0  0  0
   44.8230   25.7520   51.7700 O   0  0  0  0  0  0  0  0  0  0  0  0
  2  1  2  0
  6  1  1  0
  7  1  1  0
  3  2  1  0
  4  3  2  0
  5  4  1  0
 12  4  1  0
  6  5  2  0
 13  5  1  0
 10  7  2  0
 11  7  1  0
  9  8  1  0
 12  8  2  0
 13  8  1  0
 21  9  1  0
 26  9  2  0
 15 14  2  0
 19 14  1  0
 20 14  1  0
 16 15  1  0
 17 16  2  0
 18 17  1  0
 24 17  1  0
 19 18  2  0
 25 18  1  0
 22 20  2  0
 23 20  1  0
 24 21  2  0
 25 21  1  0
M  CHG  2  10   1  22   1
A    1
C1
A    2
C2
A    3
C3
A    4
C4
A    5
C5
A    6
C6
A    7
C7
A    8
C8
A    9
C9
A   10
N1
A   11
N2
A   12
N3
A   13
N4
A   14
C1'
A   15
C2'
A   16
C3'
A   17
C4'
A   18
C5'
A   19
C6'
A   20
C7'
A   21
C8'
A   22
N1'
A   23
N2'
A   24
N3'
A   25
N4'
A   26
O9
M  END
>  <Id>  (95) 
1C2J_BAK_A_246

>  <ChainId>  (95) 
A

>  <AsymId>  (95) 
F

>  <SeqNum>  (95) 
246

>  <Name>  (95) 
BIS(5-AMIDINO-2-BENZIMIDAZOLYL)METHANE KETONE

>  <SystematicName>  (95) 
[amino-[2-[[6-(amino-azaniumylidene-methyl)-1H-benzimidazol-2-yl]carbonyl]-3H-benzimidazol-5-yl]methylidene]azanium

>  <Synonyms>  (95) 


>  <Type>  (95) 
NON-POLYMER

>  <Formula>  (95) 
C17 H16 N8 O

>  <ObservedFormula>  (95) 
C17 N8 O

>  <MolecularWeight>  (95) 
348.362

>  <ModifiedDate>  (95) 
2011-06-04

>  <Parent>  (95) 


>  <OneLetterCode>  (95) 


>  <SubcomponentList>  (95) 


>  <AmbiguousFlag>  (95) 
N

>  <InsertionCode>  (95) 


>  <InstanceId>  (95) 
1C2J_BAK_A_246

>  <ChemCompId>  (95) 
BAK

>  <PdbId>  (95) 
1C2J

>  <ResidueNumber>  (95) 
246

>  <InChI>  (95) 
InChI=1S/C17H14N8O/c18-14(19)7-1-3-9-11(5-7)24-16(22-9)13(26)17-23-10-4-2-8(15(20)21)6-12(10)25-17/h1-6H,(H3,18,19)(H3,20,21)(H,22,24)(H,23,25)/p+2

>  <InChIKey>  (95) 
VVVXDHROXQUONB-UHFFFAOYSA-P

>  <SMILES>  (95) 
c1cc2c(cc1C(=[NH2+])N)[nH]c(n2)C(=O)c3[nH]c4cc(ccc4n3)C(=[NH2+])N

>  <MissingHeavyAtoms>  (95) 
0

>  <Model>  (95) 
1

>  <AltIds>  (95) 


>  <pKI>  (95) 
8.28

>  <ChemblID>  (95) 
-

>  <standardized_canonical_smiles>  (95) 
NC(=[NH2+])c1ccc2nc(C(=O)c3nc4ccc(C(N)=[NH2+])cc4[nH]3)[nH]c2c1

$$$$
1C2I_BAK_A_246
     RDKit          3D

 26 29  0  0  0  0  0  0  0  0999 V2000
   45.2590   19.6400   52.7600 C   0  0  0  0  0  0  0  0  0  0  0  0
   44.6510   19.2470   51.5180 C   0  0  0  0  0  0  0  0  0  0  0  0
   44.2770   20.1810   50.5360 C   0  0  0  0  0  0  0  0  0  0  0  0
   44.5300   21.5120   50.8400 C   0  0  0  0  0  0  0  0  0  0  0  0
   45.0980   21.9250   51.9980 C   0  0  0  0  0  0  0  0  0  0  0  0
   45.4750   21.0310   52.9780 C   0  0  0  0  0  0  0  0  0  0  0  0
   45.6410   18.6980   53.7490 C   0  0  0  0  0  0  0  0  0  0  0  0
   44.7370   23.6080   50.8020 C   0  0  0  0  0  0  0  0  0  0  0  0
   44.7520   24.9560   50.2850 C   0  0  0  0  0  0  0  0  0  0  0  0
   46.3940   19.0840   54.7390 N   0  0  0  0  0  0  0  0  0  0  0  0
   45.2550   17.4470   53.6890 N   0  0  0  0  0  0  0  0  0  0  0  0
   44.3210   22.5790   50.1350 N   0  0  0  0  0  0  0  0  0  0  0  0
   45.2180   23.2420   51.9670 N   0  0  0  0  0  0  0  0  0  0  0  0
   43.4790   27.3650   45.0150 C   0  0  0  0  0  0  0  0  0  0  0  0
   43.2670   25.9830   44.7090 C   0  0  0  0  0  0  0  0  0  0  0  0
   43.4460   24.9780   45.6720 C   0  0  0  0  0  0  0  0  0  0  0  0
   43.8400   25.3880   46.9340 C   0  0  0  0  0  0  0  0  0  0  0  0
   44.0520   26.6570   47.2710 C   0  0  0  0  0  0  0  0  0  0  0  0
   43.8830   27.6900   46.3550 C   0  0  0  0  0  0  0  0  0  0  0  0
   43.3020   28.3570   44.0390 C   0  0  0  0  0  0  0  0  0  0  0  0
   44.4230   25.4380   48.9590 C   0  0  0  0  0  0  0  0  0  0  0  0
   43.5430   29.6200   44.3140 N   0  0  0  0  0  0  0  0  0  0  0  0
   42.8980   28.0110   42.8470 N   0  0  0  0  0  0  0  0  0  0  0  0
   44.0720   24.6750   47.9910 N   0  0  0  0  0  0  0  0  0  0  0  0
   44.4110   26.6720   48.5370 N   0  0  0  0  0  0  0  0  0  0  0  0
   45.1030   25.8110   51.0790 O   0  0  0  0  0  0  0  0  0  0  0  0
  2  1  2  0
  6  1  1  0
  7  1  1  0
  3  2  1  0
  4  3  2  0
  5  4  1  0
 12  4  1  0
  6  5  2  0
 13  5  1  0
 10  7  2  0
 11  7  1  0
  9  8  1  0
 12  8  2  0
 13  8  1  0
 21  9  1  0
 26  9  2  0
 15 14  2  0
 19 14  1  0
 20 14  1  0
 16 15  1  0
 17 16  2  0
 18 17  1  0
 24 17  1  0
 19 18  2  0
 25 18  1  0
 22 20  2  0
 23 20  1  0
 24 21  2  0
 25 21  1  0
M  CHG  2  10   1  22   1
A    1
C1
A    2
C2
A    3
C3
A    4
C4
A    5
C5
A    6
C6
A    7
C7
A    8
C8
A    9
C9
A   10
N1
A   11
N2
A   12
N3
A   13
N4
A   14
C1'
A   15
C2'
A   16
C3'
A   17
C4'
A   18
C5'
A   19
C6'
A   20
C7'
A   21
C8'
A   22
N1'
A   23
N2'
A   24
N3'
A   25
N4'
A   26
O9
M  END
>  <Id>  (96) 
1C2I_BAK_A_246

>  <ChainId>  (96) 
A

>  <AsymId>  (96) 
G

>  <SeqNum>  (96) 
246

>  <Name>  (96) 
BIS(5-AMIDINO-2-BENZIMIDAZOLYL)METHANE KETONE

>  <SystematicName>  (96) 
[amino-[2-[[6-(amino-azaniumylidene-methyl)-1H-benzimidazol-2-yl]carbonyl]-3H-benzimidazol-5-yl]methylidene]azanium

>  <Synonyms>  (96) 


>  <Type>  (96) 
NON-POLYMER

>  <Formula>  (96) 
C17 H16 N8 O

>  <ObservedFormula>  (96) 
C17 N8 O

>  <MolecularWeight>  (96) 
348.362

>  <ModifiedDate>  (96) 
2011-06-04

>  <Parent>  (96) 


>  <OneLetterCode>  (96) 


>  <SubcomponentList>  (96) 


>  <AmbiguousFlag>  (96) 
N

>  <InsertionCode>  (96) 


>  <InstanceId>  (96) 
1C2I_BAK_A_246

>  <ChemCompId>  (96) 
BAK

>  <PdbId>  (96) 
1C2I

>  <ResidueNumber>  (96) 
246

>  <InChI>  (96) 
InChI=1S/C17H14N8O/c18-14(19)7-1-3-9-11(5-7)24-16(22-9)13(26)17-23-10-4-2-8(15(20)21)6-12(10)25-17/h1-6H,(H3,18,19)(H3,20,21)(H,22,24)(H,23,25)/p+2

>  <InChIKey>  (96) 
VVVXDHROXQUONB-UHFFFAOYSA-P

>  <SMILES>  (96) 
c1cc2c(cc1C(=[NH2+])N)[nH]c(n2)C(=O)c3[nH]c4cc(ccc4n3)C(=[NH2+])N

>  <MissingHeavyAtoms>  (96) 
0

>  <Model>  (96) 
1

>  <AltIds>  (96) 


>  <pKI>  (96) 
8.28

>  <ChemblID>  (96) 
-

>  <standardized_canonical_smiles>  (96) 
NC(=[NH2+])c1ccc2nc(C(=O)c3nc4ccc(C(N)=[NH2+])cc4[nH]3)[nH]c2c1

$$$$
1C2D_BAK_A_246
     RDKit          3D

 26 29  0  0  0  0  0  0  0  0999 V2000
   45.0290   19.5220   52.8120 C   0  0  0  0  0  0  0  0  0  0  0  0
   44.5390   19.1090   51.5300 C   0  0  0  0  0  0  0  0  0  0  0  0
   44.2720   20.0300   50.5070 C   0  0  0  0  0  0  0  0  0  0  0  0
   44.5030   21.3550   50.8160 C   0  0  0  0  0  0  0  0  0  0  0  0
   44.9540   21.7530   52.0140 C   0  0  0  0  0  0  0  0  0  0  0  0
   45.2280   20.9000   53.0160 C   0  0  0  0  0  0  0  0  0  0  0  0
   45.3480   18.6250   53.8490 C   0  0  0  0  0  0  0  0  0  0  0  0
   44.7100   23.4320   50.8380 C   0  0  0  0  0  0  0  0  0  0  0  0
   44.7010   24.7910   50.4000 C   0  0  0  0  0  0  0  0  0  0  0  0
   46.0400   19.0650   54.8700 N   0  0  0  0  0  0  0  0  0  0  0  0
   44.9790   17.3710   53.8100 N   0  0  0  0  0  0  0  0  0  0  0  0
   44.3580   22.4250   50.0780 N   0  0  0  0  0  0  0  0  0  0  0  0
   45.0840   23.0500   52.0300 N   0  0  0  0  0  0  0  0  0  0  0  0
   43.4010   27.2900   45.3590 C   0  0  0  0  0  0  0  0  0  0  0  0
   43.3870   25.9110   44.9370 C   0  0  0  0  0  0  0  0  0  0  0  0
   43.6640   24.8620   45.8220 C   0  0  0  0  0  0  0  0  0  0  0  0
   43.9540   25.2330   47.1070 C   0  0  0  0  0  0  0  0  0  0  0  0
   43.9770   26.5210   47.5370 C   0  0  0  0  0  0  0  0  0  0  0  0
   43.7090   27.5820   46.7150 C   0  0  0  0  0  0  0  0  0  0  0  0
   43.1260   28.3200   44.4690 C   0  0  0  0  0  0  0  0  0  0  0  0
   44.4350   25.2500   49.1110 C   0  0  0  0  0  0  0  0  0  0  0  0
   42.9220   29.5410   44.8950 N   0  0  0  0  0  0  0  0  0  0  0  0
   43.0780   28.0430   43.2000 N   0  0  0  0  0  0  0  0  0  0  0  0
   44.2430   24.4580   48.1090 N   0  0  0  0  0  0  0  0  0  0  0  0
   44.2880   26.5040   48.8080 N   0  0  0  0  0  0  0  0  0  0  0  0
   44.9210   25.6520   51.2370 O   0  0  0  0  0  0  0  0  0  0  0  0
  2  1  2  0
  6  1  1  0
  7  1  1  0
  3  2  1  0
  4  3  2  0
  5  4  1  0
 12  4  1  0
  6  5  2  0
 13  5  1  0
 10  7  2  0
 11  7  1  0
  9  8  1  0
 12  8  2  0
 13  8  1  0
 21  9  1  0
 26  9  2  0
 15 14  2  0
 19 14  1  0
 20 14  1  0
 16 15  1  0
 17 16  2  0
 18 17  1  0
 24 17  1  0
 19 18  2  0
 25 18  1  0
 22 20  2  0
 23 20  1  0
 24 21  2  0
 25 21  1  0
M  CHG  2  10   1  22   1
A    1
C1
A    2
C2
A    3
C3
A    4
C4
A    5
C5
A    6
C6
A    7
C7
A    8
C8
A    9
C9
A   10
N1
A   11
N2
A   12
N3
A   13
N4
A   14
C1'
A   15
C2'
A   16
C3'
A   17
C4'
A   18
C5'
A   19
C6'
A   20
C7'
A   21
C8'
A   22
N1'
A   23
N2'
A   24
N3'
A   25
N4'
A   26
O9
M  END
>  <Id>  (97) 
1C2D_BAK_A_246

>  <ChainId>  (97) 
A

>  <AsymId>  (97) 
F

>  <SeqNum>  (97) 
246

>  <Name>  (97) 
BIS(5-AMIDINO-2-BENZIMIDAZOLYL)METHANE KETONE

>  <SystematicName>  (97) 
[amino-[2-[[6-(amino-azaniumylidene-methyl)-1H-benzimidazol-2-yl]carbonyl]-3H-benzimidazol-5-yl]methylidene]azanium

>  <Synonyms>  (97) 


>  <Type>  (97) 
NON-POLYMER

>  <Formula>  (97) 
C17 H16 N8 O

>  <ObservedFormula>  (97) 
C17 N8 O

>  <MolecularWeight>  (97) 
348.362

>  <ModifiedDate>  (97) 
2011-06-04

>  <Parent>  (97) 


>  <OneLetterCode>  (97) 


>  <SubcomponentList>  (97) 


>  <AmbiguousFlag>  (97) 
N

>  <InsertionCode>  (97) 


>  <InstanceId>  (97) 
1C2D_BAK_A_246

>  <ChemCompId>  (97) 
BAK

>  <PdbId>  (97) 
1C2D

>  <ResidueNumber>  (97) 
246

>  <InChI>  (97) 
InChI=1S/C17H14N8O/c18-14(19)7-1-3-9-11(5-7)24-16(22-9)13(26)17-23-10-4-2-8(15(20)21)6-12(10)25-17/h1-6H,(H3,18,19)(H3,20,21)(H,22,24)(H,23,25)/p+2

>  <InChIKey>  (97) 
VVVXDHROXQUONB-UHFFFAOYSA-P

>  <SMILES>  (97) 
c1cc2c(cc1C(=[NH2+])N)[nH]c(n2)C(=O)c3[nH]c4cc(ccc4n3)C(=[NH2+])N

>  <MissingHeavyAtoms>  (97) 
0

>  <Model>  (97) 
1

>  <AltIds>  (97) 


>  <pKI>  (97) 
8.28

>  <ChemblID>  (97) 
-

>  <standardized_canonical_smiles>  (97) 
NC(=[NH2+])c1ccc2nc(C(=O)c3nc4ccc(C(N)=[NH2+])cc4[nH]3)[nH]c2c1

$$$$
1C2E_BAK_A_246
     RDKit          3D

 26 29  0  0  0  0  0  0  0  0999 V2000
   45.1920   19.6000   52.8320 C   0  0  0  0  0  0  0  0  0  0  0  0
   44.6770   19.1830   51.5700 C   0  0  0  0  0  0  0  0  0  0  0  0
   44.3400   20.1120   50.5760 C   0  0  0  0  0  0  0  0  0  0  0  0
   44.5440   21.4620   50.8790 C   0  0  0  0  0  0  0  0  0  0  0  0
   45.0320   21.8770   52.0640 C   0  0  0  0  0  0  0  0  0  0  0  0
   45.3640   20.9920   53.0510 C   0  0  0  0  0  0  0  0  0  0  0  0
   45.5380   18.6850   53.8560 C   0  0  0  0  0  0  0  0  0  0  0  0
   44.6710   23.5690   50.8730 C   0  0  0  0  0  0  0  0  0  0  0  0
   44.6620   24.9480   50.4260 C   0  0  0  0  0  0  0  0  0  0  0  0
   46.2770   19.1150   54.8570 N   0  0  0  0  0  0  0  0  0  0  0  0
   45.1460   17.4270   53.8050 N   0  0  0  0  0  0  0  0  0  0  0  0
   44.3440   22.5340   50.1620 N   0  0  0  0  0  0  0  0  0  0  0  0
   45.0950   23.1970   52.0530 N   0  0  0  0  0  0  0  0  0  0  0  0
   43.5400   27.4080   45.2130 C   0  0  0  0  0  0  0  0  0  0  0  0
   43.4740   26.0320   44.8460 C   0  0  0  0  0  0  0  0  0  0  0  0
   43.7120   25.0130   45.7790 C   0  0  0  0  0  0  0  0  0  0  0  0
   43.9950   25.4200   47.0640 C   0  0  0  0  0  0  0  0  0  0  0  0
   44.0660   26.7020   47.4710 C   0  0  0  0  0  0  0  0  0  0  0  0
   43.8440   27.7380   46.5810 C   0  0  0  0  0  0  0  0  0  0  0  0
   43.2870   28.4190   44.2860 C   0  0  0  0  0  0  0  0  0  0  0  0
   44.4190   25.4490   49.1140 C   0  0  0  0  0  0  0  0  0  0  0  0
   43.8940   29.5730   44.4560 N   0  0  0  0  0  0  0  0  0  0  0  0
   42.4570   28.1910   43.2890 N   0  0  0  0  0  0  0  0  0  0  0  0
   44.2230   24.6780   48.0950 N   0  0  0  0  0  0  0  0  0  0  0  0
   44.3380   26.7010   48.7700 N   0  0  0  0  0  0  0  0  0  0  0  0
   44.8240   25.8180   51.2600 O   0  0  0  0  0  0  0  0  0  0  0  0
  2  1  2  0
  6  1  1  0
  7  1  1  0
  3  2  1  0
  4  3  2  0
  5  4  1  0
 12  4  1  0
  6  5  2  0
 13  5  1  0
 10  7  2  0
 11  7  1  0
  9  8  1  0
 12  8  2  0
 13  8  1  0
 21  9  1  0
 26  9  2  0
 15 14  2  0
 19 14  1  0
 20 14  1  0
 16 15  1  0
 17 16  2  0
 18 17  1  0
 24 17  1  0
 19 18  2  0
 25 18  1  0
 22 20  2  0
 23 20  1  0
 24 21  2  0
 25 21  1  0
M  CHG  2  10   1  22   1
A    1
C1
A    2
C2
A    3
C3
A    4
C4
A    5
C5
A    6
C6
A    7
C7
A    8
C8
A    9
C9
A   10
N1
A   11
N2
A   12
N3
A   13
N4
A   14
C1'
A   15
C2'
A   16
C3'
A   17
C4'
A   18
C5'
A   19
C6'
A   20
C7'
A   21
C8'
A   22
N1'
A   23
N2'
A   24
N3'
A   25
N4'
A   26
O9
M  END
>  <Id>  (98) 
1C2E_BAK_A_246

>  <ChainId>  (98) 
A

>  <AsymId>  (98) 
E

>  <SeqNum>  (98) 
246

>  <Name>  (98) 
BIS(5-AMIDINO-2-BENZIMIDAZOLYL)METHANE KETONE

>  <SystematicName>  (98) 
[amino-[2-[[6-(amino-azaniumylidene-methyl)-1H-benzimidazol-2-yl]carbonyl]-3H-benzimidazol-5-yl]methylidene]azanium

>  <Synonyms>  (98) 


>  <Type>  (98) 
NON-POLYMER

>  <Formula>  (98) 
C17 H16 N8 O

>  <ObservedFormula>  (98) 
C17 N8 O

>  <MolecularWeight>  (98) 
348.362

>  <ModifiedDate>  (98) 
2011-06-04

>  <Parent>  (98) 


>  <OneLetterCode>  (98) 


>  <SubcomponentList>  (98) 


>  <AmbiguousFlag>  (98) 
N

>  <InsertionCode>  (98) 


>  <InstanceId>  (98) 
1C2E_BAK_A_246

>  <ChemCompId>  (98) 
BAK

>  <PdbId>  (98) 
1C2E

>  <ResidueNumber>  (98) 
246

>  <InChI>  (98) 
InChI=1S/C17H14N8O/c18-14(19)7-1-3-9-11(5-7)24-16(22-9)13(26)17-23-10-4-2-8(15(20)21)6-12(10)25-17/h1-6H,(H3,18,19)(H3,20,21)(H,22,24)(H,23,25)/p+2

>  <InChIKey>  (98) 
VVVXDHROXQUONB-UHFFFAOYSA-P

>  <SMILES>  (98) 
c1cc2c(cc1C(=[NH2+])N)[nH]c(n2)C(=O)c3[nH]c4cc(ccc4n3)C(=[NH2+])N

>  <MissingHeavyAtoms>  (98) 
0

>  <Model>  (98) 
1

>  <AltIds>  (98) 


>  <pKI>  (98) 
8.28

>  <ChemblID>  (98) 
-

>  <standardized_canonical_smiles>  (98) 
NC(=[NH2+])c1ccc2nc(C(=O)c3nc4ccc(C(N)=[NH2+])cc4[nH]3)[nH]c2c1

$$$$
1C2H_BAK_A_246
     RDKit          3D

 26 29  0  0  0  0  0  0  0  0999 V2000
   45.2280   19.5270   52.8430 C   0  0  0  0  0  0  0  0  0  0  0  0
   44.6410   19.1390   51.5950 C   0  0  0  0  0  0  0  0  0  0  0  0
   44.2460   20.0500   50.6030 C   0  0  0  0  0  0  0  0  0  0  0  0
   44.4750   21.3780   50.8950 C   0  0  0  0  0  0  0  0  0  0  0  0
   45.0190   21.7860   52.0810 C   0  0  0  0  0  0  0  0  0  0  0  0
   45.4100   20.9170   53.0610 C   0  0  0  0  0  0  0  0  0  0  0  0
   45.6240   18.6100   53.8110 C   0  0  0  0  0  0  0  0  0  0  0  0
   44.6340   23.4770   50.9050 C   0  0  0  0  0  0  0  0  0  0  0  0
   44.6340   24.8540   50.3990 C   0  0  0  0  0  0  0  0  0  0  0  0
   46.4050   19.0400   54.7530 N   0  0  0  0  0  0  0  0  0  0  0  0
   45.2290   17.3720   53.7400 N   0  0  0  0  0  0  0  0  0  0  0  0
   44.2490   22.4490   50.2060 N   0  0  0  0  0  0  0  0  0  0  0  0
   45.1190   23.0910   52.0810 N   0  0  0  0  0  0  0  0  0  0  0  0
   43.5810   27.3120   45.1450 C   0  0  0  0  0  0  0  0  0  0  0  0
   43.4160   25.9360   44.7890 C   0  0  0  0  0  0  0  0  0  0  0  0
   43.5720   24.9130   45.7370 C   0  0  0  0  0  0  0  0  0  0  0  0
   43.8880   25.3160   47.0190 C   0  0  0  0  0  0  0  0  0  0  0  0
   44.0420   26.5900   47.3900 C   0  0  0  0  0  0  0  0  0  0  0  0
   43.9070   27.6280   46.4980 C   0  0  0  0  0  0  0  0  0  0  0  0
   43.4530   28.3270   44.2190 C   0  0  0  0  0  0  0  0  0  0  0  0
   44.3640   25.4020   49.0750 C   0  0  0  0  0  0  0  0  0  0  0  0
   43.9140   29.5250   44.5360 N   0  0  0  0  0  0  0  0  0  0  0  0
   42.8830   28.0460   43.0790 N   0  0  0  0  0  0  0  0  0  0  0  0
   44.0970   24.6410   48.0850 N   0  0  0  0  0  0  0  0  0  0  0  0
   44.3360   26.6480   48.6720 N   0  0  0  0  0  0  0  0  0  0  0  0
   44.8480   25.7320   51.2380 O   0  0  0  0  0  0  0  0  0  0  0  0
  2  1  2  0
  6  1  1  0
  7  1  1  0
  3  2  1  0
  4  3  2  0
  5  4  1  0
 12  4  1  0
  6  5  2  0
 13  5  1  0
 10  7  2  0
 11  7  1  0
  9  8  1  0
 12  8  2  0
 13  8  1  0
 21  9  1  0
 26  9  2  0
 15 14  2  0
 19 14  1  0
 20 14  1  0
 16 15  1  0
 17 16  2  0
 18 17  1  0
 24 17  1  0
 19 18  2  0
 25 18  1  0
 22 20  2  0
 23 20  1  0
 24 21  2  0
 25 21  1  0
M  CHG  2  10   1  22   1
A    1
C1
A    2
C2
A    3
C3
A    4
C4
A    5
C5
A    6
C6
A    7
C7
A    8
C8
A    9
C9
A   10
N1
A   11
N2
A   12
N3
A   13
N4
A   14
C1'
A   15
C2'
A   16
C3'
A   17
C4'
A   18
C5'
A   19
C6'
A   20
C7'
A   21
C8'
A   22
N1'
A   23
N2'
A   24
N3'
A   25
N4'
A   26
O9
M  END
>  <Id>  (99) 
1C2H_BAK_A_246

>  <ChainId>  (99) 
A

>  <AsymId>  (99) 
G

>  <SeqNum>  (99) 
246

>  <Name>  (99) 
BIS(5-AMIDINO-2-BENZIMIDAZOLYL)METHANE KETONE

>  <SystematicName>  (99) 
[amino-[2-[[6-(amino-azaniumylidene-methyl)-1H-benzimidazol-2-yl]carbonyl]-3H-benzimidazol-5-yl]methylidene]azanium

>  <Synonyms>  (99) 


>  <Type>  (99) 
NON-POLYMER

>  <Formula>  (99) 
C17 H16 N8 O

>  <ObservedFormula>  (99) 
C17 N8 O

>  <MolecularWeight>  (99) 
348.362

>  <ModifiedDate>  (99) 
2011-06-04

>  <Parent>  (99) 


>  <OneLetterCode>  (99) 


>  <SubcomponentList>  (99) 


>  <AmbiguousFlag>  (99) 
N

>  <InsertionCode>  (99) 


>  <InstanceId>  (99) 
1C2H_BAK_A_246

>  <ChemCompId>  (99) 
BAK

>  <PdbId>  (99) 
1C2H

>  <ResidueNumber>  (99) 
246

>  <InChI>  (99) 
InChI=1S/C17H14N8O/c18-14(19)7-1-3-9-11(5-7)24-16(22-9)13(26)17-23-10-4-2-8(15(20)21)6-12(10)25-17/h1-6H,(H3,18,19)(H3,20,21)(H,22,24)(H,23,25)/p+2

>  <InChIKey>  (99) 
VVVXDHROXQUONB-UHFFFAOYSA-P

>  <SMILES>  (99) 
c1cc2c(cc1C(=[NH2+])N)[nH]c(n2)C(=O)c3[nH]c4cc(ccc4n3)C(=[NH2+])N

>  <MissingHeavyAtoms>  (99) 
0

>  <Model>  (99) 
1

>  <AltIds>  (99) 


>  <pKI>  (99) 
8.28

>  <ChemblID>  (99) 
-

>  <standardized_canonical_smiles>  (99) 
NC(=[NH2+])c1ccc2nc(C(=O)c3nc4ccc(C(N)=[NH2+])cc4[nH]3)[nH]c2c1

$$$$
1O2S_CR4_A_246
     RDKit          3D

 19 21  0  0  0  0  0  0  0  0999 V2000
   44.4320   -3.1000   26.2090 C   0  0  0  0  0  0  0  0  0  0  0  0
   44.8530   -1.7570   26.2780 C   0  0  0  0  0  0  0  0  0  0  0  0
   44.8200   -1.0550   27.4740 C   0  0  0  0  0  0  0  0  0  0  0  0
   44.3690   -1.7070   28.5790 C   0  0  0  0  0  0  0  0  0  0  0  0
   43.9510   -2.9880   28.5690 C   0  0  0  0  0  0  0  0  0  0  0  0
   43.9680   -3.7260   27.3860 C   0  0  0  0  0  0  0  0  0  0  0  0
   44.4890   -3.7890   24.9880 C   0  0  0  0  0  0  0  0  0  0  0  0
   44.2160   -5.0750   24.9500 N   0  0  0  0  0  0  0  0  0  0  0  0
   44.8110   -3.1340   23.8960 N   0  0  0  0  0  0  0  0  0  0  0  0
   44.2410   -1.3060   29.7810 N   0  0  0  0  0  0  0  0  0  0  0  0
   43.5570   -3.4060   29.7520 N   0  0  0  0  0  0  0  0  0  0  0  0
   43.7710   -2.3000   30.4570 C   0  0  0  0  0  0  0  0  0  0  0  0
   43.5750   -2.1580   31.8270 C   0  0  0  0  0  0  0  0  0  0  0  0
   43.3790   -3.3150   32.6020 C   0  0  0  0  0  0  0  0  0  0  0  0
   43.1840   -3.2160   33.9690 C   0  0  0  0  0  0  0  0  0  0  0  0
   43.1850   -1.9660   34.5710 C   0  0  0  0  0  0  0  0  0  0  0  0
   43.3800   -0.7990   33.8160 C   0  0  0  0  0  0  0  0  0  0  0  0
   43.5740   -0.8660   32.4370 C   0  0  0  0  0  0  0  0  0  0  0  0
   43.7320    0.3260   31.7190 O   0  0  0  0  0  0  0  0  0  0  0  0
  2  1  2  0
  6  1  1  0
  7  1  1  0
  3  2  1  0
  4  3  2  0
  5  4  1  0
 10  4  1  0
  6  5  2  0
 11  5  1  0
  8  7  1  0
  9  7  2  0
 12 10  1  0
 12 11  2  0
 13 12  1  0
 14 13  2  0
 18 13  1  0
 15 14  1  0
 16 15  2  0
 17 16  1  0
 18 17  2  0
 19 18  1  0
M  CHG  2   9   1  19  -1
A    1
C1
A    2
C2
A    3
C3
A    4
C4
A    5
C5
A    6
C6
A    7
C7
A    8
N1
A    9
N2
A   10
N3
A   11
N4
A   12
C8
A   13
C1'
A   14
C2'
A   15
C3'
A   16
C4'
A   17
C5'
A   18
C6'
A   19
O6'
M  END
>  <Id>  (100) 
1O2S_CR4_A_246

>  <ChainId>  (100) 
A

>  <AsymId>  (100) 
D

>  <SeqNum>  (100) 
246

>  <Name>  (100) 
2-{5-[AMINO(IMINIO)METHYL]-1H-BENZIMIDAZOL-2-YL}BENZENOLATE

>  <SystematicName>  (100) 
2-[5-(amino-azaniumylidene-methyl)-1H-benzimidazol-2-yl]phenolate

>  <Synonyms>  (100) 
CRA_1144

>  <Type>  (100) 
NON-POLYMER

>  <Formula>  (100) 
C14 H12 N4 O

>  <ObservedFormula>  (100) 
C14 N4 O

>  <MolecularWeight>  (100) 
252.271

>  <ModifiedDate>  (100) 
2011-06-04

>  <Parent>  (100) 


>  <OneLetterCode>  (100) 


>  <SubcomponentList>  (100) 


>  <AmbiguousFlag>  (100) 
N

>  <InsertionCode>  (100) 


>  <InstanceId>  (100) 
1O2S_CR4_A_246

>  <ChemCompId>  (100) 
CR4

>  <PdbId>  (100) 
1O2S

>  <ResidueNumber>  (100) 
246

>  <InChI>  (100) 
InChI=1S/C14H12N4O/c15-13(16)8-5-6-10-11(7-8)18-14(17-10)9-3-1-2-4-12(9)19/h1-7,19H,(H3,15,16)(H,17,18)

>  <InChIKey>  (100) 
URJKRCBBKTXOHS-UHFFFAOYSA-N

>  <SMILES>  (100) 
c1ccc(c(c1)c2[nH]c3ccc(cc3n2)C(=[NH2+])N)[O-]

>  <MissingHeavyAtoms>  (100) 
0

>  <Model>  (100) 
1

>  <AltIds>  (100) 


>  <pKI>  (100) 
5.47

>  <ChemblID>  (100) 
-

>  <standardized_canonical_smiles>  (100) 
NC(=[NH2+])c1ccc2[nH]c(-c3ccccc3[O-])nc2c1

$$$$
1O39_780_A_246
     RDKit          3D

 25 28  0  0  0  0  0  0  0  0999 V2000
   44.2740   -3.0250   25.9010 C   0  0  0  0  0  0  0  0  0  0  0  0
   44.7050   -1.6710   25.9980 C   0  0  0  0  0  0  0  0  0  0  0  0
   44.6550   -0.9290   27.1860 C   0  0  0  0  0  0  0  0  0  0  0  0
   44.1650   -1.5680   28.2820 C   0  0  0  0  0  0  0  0  0  0  0  0
   43.7430   -2.8330   28.2540 C   0  0  0  0  0  0  0  0  0  0  0  0
   43.7710   -3.6160   27.0950 C   0  0  0  0  0  0  0  0  0  0  0  0
   44.3490   -3.7300   24.6640 C   0  0  0  0  0  0  0  0  0  0  0  0
   44.0340   -5.0090   24.5820 N   0  0  0  0  0  0  0  0  0  0  0  0
   44.7390   -3.0740   23.5990 N   0  0  0  0  0  0  0  0  0  0  0  0
   43.9950   -1.1360   29.4880 N   0  0  0  0  0  0  0  0  0  0  0  0
   43.2950   -3.2380   29.4330 N   0  0  0  0  0  0  0  0  0  0  0  0
   43.4870   -2.1310   30.1340 C   0  0  0  0  0  0  0  0  0  0  0  0
   43.2510   -2.0680   31.5330 C   0  0  0  0  0  0  0  0  0  0  0  0
   42.8990   -3.2180   32.2420 C   0  0  0  0  0  0  0  0  0  0  0  0
   42.6650   -3.1810   33.6070 C   0  0  0  0  0  0  0  0  0  0  0  0
   42.7710   -2.0060   34.3100 C   0  0  0  0  0  0  0  0  0  0  0  0
   43.1180   -0.8120   33.6870 C   0  0  0  0  0  0  0  0  0  0  0  0
   43.3560   -0.8540   32.2840 C   0  0  0  0  0  0  0  0  0  0  0  0
   43.6960    0.3170   31.6220 O   0  0  0  0  0  0  0  0  0  0  0  0
   43.2170    0.3590   34.4670 C   0  0  0  0  0  0  0  0  0  0  0  0
   44.3940    1.1260   34.5490 C   0  0  0  0  0  0  0  0  0  0  0  0
   44.4710    2.2860   35.3310 C   0  0  0  0  0  0  0  0  0  0  0  0
   43.3650    2.7090   36.0560 C   0  0  0  0  0  0  0  0  0  0  0  0
   42.1910    1.9690   35.9930 C   0  0  0  0  0  0  0  0  0  0  0  0
   42.1230    0.8190   35.2140 C   0  0  0  0  0  0  0  0  0  0  0  0
  2  1  2  0
  6  1  1  0
  7  1  1  0
  3  2  1  0
  4  3  2  0
  5  4  1  0
 10  4  1  0
  6  5  2  0
 11  5  1  0
  8  7  1  0
  9  7  2  0
 12 10  1  0
 12 11  2  0
 13 12  1  0
 14 13  2  0
 18 13  1  0
 15 14  1  0
 16 15  2  0
 17 16  1  0
 18 17  2  0
 20 17  1  0
 19 18  1  0
 21 20  2  0
 25 20  1  0
 22 21  1  0
 23 22  2  0
 24 23  1  0
 25 24  2  0
M  CHG  2   9   1  19  -1
A    1
C1
A    2
C2
A    3
C3
A    4
C4
A    5
C5
A    6
C6
A    7
C7
A    8
N1
A    9
N2
A   10
N3
A   11
N4
A   12
C8
A   13
C1'
A   14
C2'
A   15
C3'
A   16
C4'
A   17
C5'
A   18
C6'
A   19
O6'
A   20
C1B
A   21
C2B
A   22
C3B
A   23
C4B
A   24
C5B
A   25
C6B
M  END
>  <Id>  (101) 
1O39_780_A_246

>  <ChainId>  (101) 
A

>  <AsymId>  (101) 
C

>  <SeqNum>  (101) 
246

>  <Name>  (101) 
3-{5-[AMINO(IMINIO)METHYL]-1H-BENZIMIDAZOL-2-YL}-1,1'-BIPHENYL-2-OLATE

>  <SystematicName>  (101) 
2-[5-(amino-azaniumylidene-methyl)-1H-benzimidazol-2-yl]-6-phenyl-phenolate

>  <Synonyms>  (101) 
CRA_7806

>  <Type>  (101) 
NON-POLYMER

>  <Formula>  (101) 
C20 H16 N4 O

>  <ObservedFormula>  (101) 
C20 N4 O

>  <MolecularWeight>  (101) 
328.367

>  <ModifiedDate>  (101) 
2011-06-04

>  <Parent>  (101) 


>  <OneLetterCode>  (101) 


>  <SubcomponentList>  (101) 


>  <AmbiguousFlag>  (101) 
N

>  <InsertionCode>  (101) 


>  <InstanceId>  (101) 
1O39_780_A_246

>  <ChemCompId>  (101) 
780

>  <PdbId>  (101) 
1O39

>  <ResidueNumber>  (101) 
246

>  <InChI>  (101) 
InChI=1S/C20H16N4O/c21-19(22)13-9-10-16-17(11-13)24-20(23-16)15-8-4-7-14(18(15)25)12-5-2-1-3-6-12/h1-11,25H,(H3,21,22)(H,23,24)

>  <InChIKey>  (101) 
LMGQGPVCSYOMNS-UHFFFAOYSA-N

>  <SMILES>  (101) 
c1ccc(cc1)c2cccc(c2[O-])c3[nH]c4ccc(cc4n3)C(=[NH2+])N

>  <MissingHeavyAtoms>  (101) 
0

>  <Model>  (101) 
1

>  <AltIds>  (101) 


>  <pKI>  (101) 
7.13

>  <ChemblID>  (101) 
-

>  <standardized_canonical_smiles>  (101) 
NC(=[NH2+])c1ccc2[nH]c(-c3cccc(-c4ccccc4)c3[O-])nc2c1

$$$$
1O3C_780_A_246
     RDKit          3D

 25 28  0  0  0  0  0  0  0  0999 V2000
   44.3310   -2.8890   26.5230 C   0  0  0  0  0  0  0  0  0  0  0  0
   44.7660   -1.5300   26.5360 C   0  0  0  0  0  0  0  0  0  0  0  0
   44.7590   -0.7320   27.6890 C   0  0  0  0  0  0  0  0  0  0  0  0
   44.3090   -1.3210   28.8200 C   0  0  0  0  0  0  0  0  0  0  0  0
   43.8950   -2.5930   28.8680 C   0  0  0  0  0  0  0  0  0  0  0  0
   43.8820   -3.4230   27.7500 C   0  0  0  0  0  0  0  0  0  0  0  0
   44.3590   -3.6570   25.3440 C   0  0  0  0  0  0  0  0  0  0  0  0
   44.1300   -4.9500   25.3840 N   0  0  0  0  0  0  0  0  0  0  0  0
   44.6110   -3.0680   24.1950 N   0  0  0  0  0  0  0  0  0  0  0  0
   44.2090   -0.8350   30.0140 N   0  0  0  0  0  0  0  0  0  0  0  0
   43.5170   -2.9620   30.0840 N   0  0  0  0  0  0  0  0  0  0  0  0
   43.7440   -1.8260   30.7210 C   0  0  0  0  0  0  0  0  0  0  0  0
   43.4140   -1.7110   32.0690 C   0  0  0  0  0  0  0  0  0  0  0  0
   43.0880   -2.8300   32.8300 C   0  0  0  0  0  0  0  0  0  0  0  0
   42.7560   -2.7150   34.1610 C   0  0  0  0  0  0  0  0  0  0  0  0
   42.7420   -1.4770   34.7620 C   0  0  0  0  0  0  0  0  0  0  0  0
   43.0610   -0.2960   34.0580 C   0  0  0  0  0  0  0  0  0  0  0  0
   43.3940   -0.4630   32.6990 C   0  0  0  0  0  0  0  0  0  0  0  0
   43.7350    0.5980   31.8960 O   0  0  0  0  0  0  0  0  0  0  0  0
   43.0140    0.9360   34.7450 C   0  0  0  0  0  0  0  0  0  0  0  0
   44.0810    1.8250   34.7700 C   0  0  0  0  0  0  0  0  0  0  0  0
   44.0310    3.0160   35.4770 C   0  0  0  0  0  0  0  0  0  0  0  0
   42.8900    3.3580   36.1880 C   0  0  0  0  0  0  0  0  0  0  0  0
   41.8070    2.5030   36.1900 C   0  0  0  0  0  0  0  0  0  0  0  0
   41.8710    1.3120   35.4770 C   0  0  0  0  0  0  0  0  0  0  0  0
  2  1  2  0
  6  1  1  0
  7  1  1  0
  3  2  1  0
  4  3  2  0
  5  4  1  0
 10  4  1  0
  6  5  2  0
 11  5  1  0
  8  7  1  0
  9  7  2  0
 12 10  1  0
 12 11  2  0
 13 12  1  0
 14 13  2  0
 18 13  1  0
 15 14  1  0
 16 15  2  0
 17 16  1  0
 18 17  2  0
 20 17  1  0
 19 18  1  0
 21 20  2  0
 25 20  1  0
 22 21  1  0
 23 22  2  0
 24 23  1  0
 25 24  2  0
M  CHG  2   9   1  19  -1
A    1
C1
A    2
C2
A    3
C3
A    4
C4
A    5
C5
A    6
C6
A    7
C7
A    8
N1
A    9
N2
A   10
N3
A   11
N4
A   12
C8
A   13
C1'
A   14
C2'
A   15
C3'
A   16
C4'
A   17
C5'
A   18
C6'
A   19
O6'
A   20
C1B
A   21
C2B
A   22
C3B
A   23
C4B
A   24
C5B
A   25
C6B
M  END
>  <Id>  (102) 
1O3C_780_A_246

>  <ChainId>  (102) 
A

>  <AsymId>  (102) 
D

>  <SeqNum>  (102) 
246

>  <Name>  (102) 
3-{5-[AMINO(IMINIO)METHYL]-1H-BENZIMIDAZOL-2-YL}-1,1'-BIPHENYL-2-OLATE

>  <SystematicName>  (102) 
2-[5-(amino-azaniumylidene-methyl)-1H-benzimidazol-2-yl]-6-phenyl-phenolate

>  <Synonyms>  (102) 
CRA_7806

>  <Type>  (102) 
NON-POLYMER

>  <Formula>  (102) 
C20 H16 N4 O

>  <ObservedFormula>  (102) 
C20 N4 O

>  <MolecularWeight>  (102) 
328.367

>  <ModifiedDate>  (102) 
2011-06-04

>  <Parent>  (102) 


>  <OneLetterCode>  (102) 


>  <SubcomponentList>  (102) 


>  <AmbiguousFlag>  (102) 
N

>  <InsertionCode>  (102) 


>  <InstanceId>  (102) 
1O3C_780_A_246

>  <ChemCompId>  (102) 
780

>  <PdbId>  (102) 
1O3C

>  <ResidueNumber>  (102) 
246

>  <InChI>  (102) 
InChI=1S/C20H16N4O/c21-19(22)13-9-10-16-17(11-13)24-20(23-16)15-8-4-7-14(18(15)25)12-5-2-1-3-6-12/h1-11,25H,(H3,21,22)(H,23,24)

>  <InChIKey>  (102) 
LMGQGPVCSYOMNS-UHFFFAOYSA-N

>  <SMILES>  (102) 
c1ccc(cc1)c2cccc(c2[O-])c3[nH]c4ccc(cc4n3)C(=[NH2+])N

>  <MissingHeavyAtoms>  (102) 
0

>  <Model>  (102) 
1

>  <AltIds>  (102) 


>  <pKI>  (102) 
7.13

>  <ChemblID>  (102) 
-

>  <standardized_canonical_smiles>  (102) 
NC(=[NH2+])c1ccc2[nH]c(-c3cccc(-c4ccccc4)c3[O-])nc2c1

$$$$
1O3D_780_A_246
     RDKit          3D

 25 28  0  0  0  0  0  0  0  0999 V2000
   44.0740   -3.0450   26.1440 C   0  0  0  0  0  0  0  0  0  0  0  0
   44.3730   -1.6480   26.1430 C   0  0  0  0  0  0  0  0  0  0  0  0
   44.2860   -0.8450   27.2840 C   0  0  0  0  0  0  0  0  0  0  0  0
   43.8980   -1.4660   28.4440 C   0  0  0  0  0  0  0  0  0  0  0  0
   43.6130   -2.7750   28.5110 C   0  0  0  0  0  0  0  0  0  0  0  0
   43.6830   -3.6180   27.3890 C   0  0  0  0  0  0  0  0  0  0  0  0
   44.1900   -3.7910   24.9550 C   0  0  0  0  0  0  0  0  0  0  0  0
   43.9180   -5.0750   24.9340 N   0  0  0  0  0  0  0  0  0  0  0  0
   44.5740   -3.1680   23.8560 N   0  0  0  0  0  0  0  0  0  0  0  0
   43.7480   -1.0060   29.6280 N   0  0  0  0  0  0  0  0  0  0  0  0
   43.2670   -3.1460   29.7330 N   0  0  0  0  0  0  0  0  0  0  0  0
   43.3750   -1.9840   30.3600 C   0  0  0  0  0  0  0  0  0  0  0  0
   43.1120   -1.8690   31.7450 C   0  0  0  0  0  0  0  0  0  0  0  0
   42.7840   -2.9940   32.5200 C   0  0  0  0  0  0  0  0  0  0  0  0
   42.5220   -2.8930   33.8830 C   0  0  0  0  0  0  0  0  0  0  0  0
   42.5840   -1.6720   34.5030 C   0  0  0  0  0  0  0  0  0  0  0  0
   42.9040   -0.5010   33.8060 C   0  0  0  0  0  0  0  0  0  0  0  0
   43.1620   -0.6300   32.4260 C   0  0  0  0  0  0  0  0  0  0  0  0
   43.4600    0.5010   31.7040 O   0  0  0  0  0  0  0  0  0  0  0  0
   42.9640    0.7150   34.5110 C   0  0  0  0  0  0  0  0  0  0  0  0
   44.1120    1.5220   34.5090 C   0  0  0  0  0  0  0  0  0  0  0  0
   44.1810    2.7080   35.2320 C   0  0  0  0  0  0  0  0  0  0  0  0
   43.0960    3.1220   35.9770 C   0  0  0  0  0  0  0  0  0  0  0  0
   41.9460    2.3580   36.0050 C   0  0  0  0  0  0  0  0  0  0  0  0
   41.8830    1.1720   35.2810 C   0  0  0  0  0  0  0  0  0  0  0  0
  2  1  2  0
  6  1  1  0
  7  1  1  0
  3  2  1  0
  4  3  2  0
  5  4  1  0
 10  4  1  0
  6  5  2  0
 11  5  1  0
  8  7  1  0
  9  7  2  0
 12 10  1  0
 12 11  2  0
 13 12  1  0
 14 13  2  0
 18 13  1  0
 15 14  1  0
 16 15  2  0
 17 16  1  0
 18 17  2  0
 20 17  1  0
 19 18  1  0
 21 20  2  0
 25 20  1  0
 22 21  1  0
 23 22  2  0
 24 23  1  0
 25 24  2  0
M  CHG  2   9   1  19  -1
A    1
C1
A    2
C2
A    3
C3
A    4
C4
A    5
C5
A    6
C6
A    7
C7
A    8
N1
A    9
N2
A   10
N3
A   11
N4
A   12
C8
A   13
C1'
A   14
C2'
A   15
C3'
A   16
C4'
A   17
C5'
A   18
C6'
A   19
O6'
A   20
C1B
A   21
C2B
A   22
C3B
A   23
C4B
A   24
C5B
A   25
C6B
M  END
>  <Id>  (103) 
1O3D_780_A_246

>  <ChainId>  (103) 
A

>  <AsymId>  (103) 
D

>  <SeqNum>  (103) 
246

>  <Name>  (103) 
3-{5-[AMINO(IMINIO)METHYL]-1H-BENZIMIDAZOL-2-YL}-1,1'-BIPHENYL-2-OLATE

>  <SystematicName>  (103) 
2-[5-(amino-azaniumylidene-methyl)-1H-benzimidazol-2-yl]-6-phenyl-phenolate

>  <Synonyms>  (103) 
CRA_7806

>  <Type>  (103) 
NON-POLYMER

>  <Formula>  (103) 
C20 H16 N4 O

>  <ObservedFormula>  (103) 
C20 N4 O

>  <MolecularWeight>  (103) 
328.367

>  <ModifiedDate>  (103) 
2011-06-04

>  <Parent>  (103) 


>  <OneLetterCode>  (103) 


>  <SubcomponentList>  (103) 


>  <AmbiguousFlag>  (103) 
N

>  <InsertionCode>  (103) 


>  <InstanceId>  (103) 
1O3D_780_A_246

>  <ChemCompId>  (103) 
780

>  <PdbId>  (103) 
1O3D

>  <ResidueNumber>  (103) 
246

>  <InChI>  (103) 
InChI=1S/C20H16N4O/c21-19(22)13-9-10-16-17(11-13)24-20(23-16)15-8-4-7-14(18(15)25)12-5-2-1-3-6-12/h1-11,25H,(H3,21,22)(H,23,24)

>  <InChIKey>  (103) 
LMGQGPVCSYOMNS-UHFFFAOYSA-N

>  <SMILES>  (103) 
c1ccc(cc1)c2cccc(c2[O-])c3[nH]c4ccc(cc4n3)C(=[NH2+])N

>  <MissingHeavyAtoms>  (103) 
0

>  <Model>  (103) 
1

>  <AltIds>  (103) 


>  <pKI>  (103) 
7.13

>  <ChemblID>  (103) 
-

>  <standardized_canonical_smiles>  (103) 
NC(=[NH2+])c1ccc2[nH]c(-c3cccc(-c4ccccc4)c3[O-])nc2c1

$$$$
1O3A_780_A_246
     RDKit          3D

 25 28  0  0  0  0  0  0  0  0999 V2000
   44.4020   -2.9880   26.5030 C   0  0  0  0  0  0  0  0  0  0  0  0
   44.8330   -1.6210   26.5000 C   0  0  0  0  0  0  0  0  0  0  0  0
   44.8220   -0.8210   27.6460 C   0  0  0  0  0  0  0  0  0  0  0  0
   44.3780   -1.3940   28.7700 C   0  0  0  0  0  0  0  0  0  0  0  0
   43.9710   -2.6780   28.8450 C   0  0  0  0  0  0  0  0  0  0  0  0
   43.9570   -3.5200   27.7300 C   0  0  0  0  0  0  0  0  0  0  0  0
   44.4180   -3.7570   25.3350 C   0  0  0  0  0  0  0  0  0  0  0  0
   44.2090   -5.0550   25.3910 N   0  0  0  0  0  0  0  0  0  0  0  0
   44.6340   -3.1620   24.1870 N   0  0  0  0  0  0  0  0  0  0  0  0
   44.2580   -0.9230   29.9600 N   0  0  0  0  0  0  0  0  0  0  0  0
   43.5800   -3.0240   30.0860 N   0  0  0  0  0  0  0  0  0  0  0  0
   43.8090   -1.8860   30.6930 C   0  0  0  0  0  0  0  0  0  0  0  0
   43.5490   -1.7530   32.0560 C   0  0  0  0  0  0  0  0  0  0  0  0
   43.3000   -2.8840   32.8330 C   0  0  0  0  0  0  0  0  0  0  0  0
   42.9880   -2.7770   34.1780 C   0  0  0  0  0  0  0  0  0  0  0  0
   42.9210   -1.5290   34.7710 C   0  0  0  0  0  0  0  0  0  0  0  0
   43.1620   -0.3470   34.0410 C   0  0  0  0  0  0  0  0  0  0  0  0
   43.4820   -0.5000   32.6690 C   0  0  0  0  0  0  0  0  0  0  0  0
   43.8050    0.5710   31.8580 O   0  0  0  0  0  0  0  0  0  0  0  0
   43.0610    0.8870   34.6970 C   0  0  0  0  0  0  0  0  0  0  0  0
   44.1080    1.8140   34.6800 C   0  0  0  0  0  0  0  0  0  0  0  0
   44.0180    3.0230   35.3400 C   0  0  0  0  0  0  0  0  0  0  0  0
   42.8620    3.3550   36.0500 C   0  0  0  0  0  0  0  0  0  0  0  0
   41.8020    2.4640   36.0900 C   0  0  0  0  0  0  0  0  0  0  0  0
   41.9040    1.2420   35.4180 C   0  0  0  0  0  0  0  0  0  0  0  0
  2  1  2  0
  6  1  1  0
  7  1  1  0
  3  2  1  0
  4  3  2  0
  5  4  1  0
 10  4  1  0
  6  5  2  0
 11  5  1  0
  8  7  1  0
  9  7  2  0
 12 10  1  0
 12 11  2  0
 13 12  1  0
 14 13  2  0
 18 13  1  0
 15 14  1  0
 16 15  2  0
 17 16  1  0
 18 17  2  0
 20 17  1  0
 19 18  1  0
 21 20  2  0
 25 20  1  0
 22 21  1  0
 23 22  2  0
 24 23  1  0
 25 24  2  0
M  CHG  2   9   1  19  -1
A    1
C1
A    2
C2
A    3
C3
A    4
C4
A    5
C5
A    6
C6
A    7
C7
A    8
N1
A    9
N2
A   10
N3
A   11
N4
A   12
C8
A   13
C1'
A   14
C2'
A   15
C3'
A   16
C4'
A   17
C5'
A   18
C6'
A   19
O6'
A   20
C1B
A   21
C2B
A   22
C3B
A   23
C4B
A   24
C5B
A   25
C6B
M  END
>  <Id>  (104) 
1O3A_780_A_246

>  <ChainId>  (104) 
A

>  <AsymId>  (104) 
C

>  <SeqNum>  (104) 
246

>  <Name>  (104) 
3-{5-[AMINO(IMINIO)METHYL]-1H-BENZIMIDAZOL-2-YL}-1,1'-BIPHENYL-2-OLATE

>  <SystematicName>  (104) 
2-[5-(amino-azaniumylidene-methyl)-1H-benzimidazol-2-yl]-6-phenyl-phenolate

>  <Synonyms>  (104) 
CRA_7806

>  <Type>  (104) 
NON-POLYMER

>  <Formula>  (104) 
C20 H16 N4 O

>  <ObservedFormula>  (104) 
C20 N4 O

>  <MolecularWeight>  (104) 
328.367

>  <ModifiedDate>  (104) 
2011-06-04

>  <Parent>  (104) 


>  <OneLetterCode>  (104) 


>  <SubcomponentList>  (104) 


>  <AmbiguousFlag>  (104) 
N

>  <InsertionCode>  (104) 


>  <InstanceId>  (104) 
1O3A_780_A_246

>  <ChemCompId>  (104) 
780

>  <PdbId>  (104) 
1O3A

>  <ResidueNumber>  (104) 
246

>  <InChI>  (104) 
InChI=1S/C20H16N4O/c21-19(22)13-9-10-16-17(11-13)24-20(23-16)15-8-4-7-14(18(15)25)12-5-2-1-3-6-12/h1-11,25H,(H3,21,22)(H,23,24)

>  <InChIKey>  (104) 
LMGQGPVCSYOMNS-UHFFFAOYSA-N

>  <MissingHeavyAtoms>  (104) 
0

>  <Model>  (104) 
1

>  <AltIds>  (104) 


>  <pKI>  (104) 
7.13

>  <ChemblID>  (104) 
-

>  <standardized_canonical_smiles>  (104) 
NC(=[NH2+])c1ccc2[nH]c(-c3cccc(-c4ccccc4)c3[O-])nc2c1

$$$$
1O3B_780_A_246
     RDKit          3D

 25 28  0  0  0  0  0  0  0  0999 V2000
   44.3240   -2.9170   26.5310 C   0  0  0  0  0  0  0  0  0  0  0  0
   44.7870   -1.5640   26.5240 C   0  0  0  0  0  0  0  0  0  0  0  0
   44.7780   -0.7470   27.6710 C   0  0  0  0  0  0  0  0  0  0  0  0
   44.3040   -1.3040   28.8230 C   0  0  0  0  0  0  0  0  0  0  0  0
   43.8610   -2.5680   28.8750 C   0  0  0  0  0  0  0  0  0  0  0  0
   43.8470   -3.4190   27.7680 C   0  0  0  0  0  0  0  0  0  0  0  0
   44.3460   -3.6970   25.3680 C   0  0  0  0  0  0  0  0  0  0  0  0
   44.1500   -4.9930   25.4240 N   0  0  0  0  0  0  0  0  0  0  0  0
   44.5590   -3.1040   24.2170 N   0  0  0  0  0  0  0  0  0  0  0  0
   44.1900   -0.8020   30.0110 N   0  0  0  0  0  0  0  0  0  0  0  0
   43.4640   -2.9130   30.0810 N   0  0  0  0  0  0  0  0  0  0  0  0
   43.6990   -1.7780   30.7160 C   0  0  0  0  0  0  0  0  0  0  0  0
   43.3550   -1.6750   32.0630 C   0  0  0  0  0  0  0  0  0  0  0  0
   43.0420   -2.8080   32.8140 C   0  0  0  0  0  0  0  0  0  0  0  0
   42.6950   -2.7250   34.1500 C   0  0  0  0  0  0  0  0  0  0  0  0
   42.6490   -1.4910   34.7670 C   0  0  0  0  0  0  0  0  0  0  0  0
   42.9520   -0.3070   34.0770 C   0  0  0  0  0  0  0  0  0  0  0  0
   43.3020   -0.4460   32.7150 C   0  0  0  0  0  0  0  0  0  0  0  0
   43.6250    0.6460   31.9490 O   0  0  0  0  0  0  0  0  0  0  0  0
   42.8910    0.9280   34.7500 C   0  0  0  0  0  0  0  0  0  0  0  0
   43.9520    1.8180   34.7220 C   0  0  0  0  0  0  0  0  0  0  0  0
   43.9300    3.0260   35.3780 C   0  0  0  0  0  0  0  0  0  0  0  0
   42.8160    3.3890   36.1030 C   0  0  0  0  0  0  0  0  0  0  0  0
   41.7270    2.5380   36.1640 C   0  0  0  0  0  0  0  0  0  0  0  0
   41.7680    1.3200   35.4940 C   0  0  0  0  0  0  0  0  0  0  0  0
  2  1  2  0
  6  1  1  0
  7  1  1  0
  3  2  1  0
  4  3  2  0
  5  4  1  0
 10  4  1  0
  6  5  2  0
 11  5  1  0
  8  7  1  0
  9  7  2  0
 12 10  1  0
 12 11  2  0
 13 12  1  0
 14 13  2  0
 18 13  1  0
 15 14  1  0
 16 15  2  0
 17 16  1  0
 18 17  2  0
 20 17  1  0
 19 18  1  0
 21 20  2  0
 25 20  1  0
 22 21  1  0
 23 22  2  0
 24 23  1  0
 25 24  2  0
M  CHG  2   9   1  19  -1
A    1
C1
A    2
C2
A    3
C3
A    4
C4
A    5
C5
A    6
C6
A    7
C7
A    8
N1
A    9
N2
A   10
N3
A   11
N4
A   12
C8
A   13
C1'
A   14
C2'
A   15
C3'
A   16
C4'
A   17
C5'
A   18
C6'
A   19
O6'
A   20
C1B
A   21
C2B
A   22
C3B
A   23
C4B
A   24
C5B
A   25
C6B
M  END
>  <Id>  (105) 
1O3B_780_A_246

>  <ChainId>  (105) 
A

>  <AsymId>  (105) 
D

>  <SeqNum>  (105) 
246

>  <Name>  (105) 
3-{5-[AMINO(IMINIO)METHYL]-1H-BENZIMIDAZOL-2-YL}-1,1'-BIPHENYL-2-OLATE

>  <SystematicName>  (105) 
2-[5-(amino-azaniumylidene-methyl)-1H-benzimidazol-2-yl]-6-phenyl-phenolate

>  <Synonyms>  (105) 
CRA_7806

>  <Type>  (105) 
NON-POLYMER

>  <Formula>  (105) 
C20 H16 N4 O

>  <ObservedFormula>  (105) 
C20 N4 O

>  <MolecularWeight>  (105) 
328.367

>  <ModifiedDate>  (105) 
2011-06-04

>  <Parent>  (105) 


>  <OneLetterCode>  (105) 


>  <SubcomponentList>  (105) 


>  <AmbiguousFlag>  (105) 
N

>  <InsertionCode>  (105) 


>  <InstanceId>  (105) 
1O3B_780_A_246

>  <ChemCompId>  (105) 
780

>  <PdbId>  (105) 
1O3B

>  <ResidueNumber>  (105) 
246

>  <InChI>  (105) 
InChI=1S/C20H16N4O/c21-19(22)13-9-10-16-17(11-13)24-20(23-16)15-8-4-7-14(18(15)25)12-5-2-1-3-6-12/h1-11,25H,(H3,21,22)(H,23,24)

>  <InChIKey>  (105) 
LMGQGPVCSYOMNS-UHFFFAOYSA-N

>  <SMILES>  (105) 
c1ccc(cc1)c2cccc(c2[O-])c3[nH]c4ccc(cc4n3)C(=[NH2+])N

>  <MissingHeavyAtoms>  (105) 
0

>  <Model>  (105) 
1

>  <AltIds>  (105) 


>  <pKI>  (105) 
7.13

>  <ChemblID>  (105) 
-

>  <standardized_canonical_smiles>  (105) 
NC(=[NH2+])c1ccc2[nH]c(-c3cccc(-c4ccccc4)c3[O-])nc2c1

$$$$
1O2Y_847_A_246
     RDKit          3D

 28 30  0  0  0  0  0  0  0  0999 V2000
   44.2040   -2.9070   26.2020 C   0  0  0  0  0  0  0  0  0  0  0  0
   44.7670   -1.5910   26.2920 C   0  0  0  0  0  0  0  0  0  0  0  0
   44.7580   -0.8460   27.4750 C   0  0  0  0  0  0  0  0  0  0  0  0
   44.1860   -1.4390   28.5700 C   0  0  0  0  0  0  0  0  0  0  0  0
   43.6440   -2.6580   28.5510 C   0  0  0  0  0  0  0  0  0  0  0  0
   43.6260   -3.4410   27.3980 C   0  0  0  0  0  0  0  0  0  0  0  0
   44.2290   -3.6140   24.9810 C   0  0  0  0  0  0  0  0  0  0  0  0
   43.7850   -4.8480   24.9260 N   0  0  0  0  0  0  0  0  0  0  0  0
   44.7170   -3.0400   23.9000 N   0  0  0  0  0  0  0  0  0  0  0  0
   44.0500   -0.9990   29.7740 N   0  0  0  0  0  0  0  0  0  0  0  0
   43.1440   -3.0230   29.7270 N   0  0  0  0  0  0  0  0  0  0  0  0
   43.4400   -1.9360   30.4440 C   0  0  0  0  0  0  0  0  0  0  0  0
   43.1280   -1.7920   31.8210 C   0  0  0  0  0  0  0  0  0  0  0  0
   42.5550   -2.8280   32.5990 C   0  0  0  0  0  0  0  0  0  0  0  0
   42.2570   -2.6820   33.9820 C   0  0  0  0  0  0  0  0  0  0  0  0
   41.5920   -3.8650   34.7840 C   0  0  0  0  0  0  0  0  0  0  0  0
   40.0900   -3.8620   34.2780 C   0  0  0  0  0  0  0  0  0  0  0  0
   39.7600   -4.7550   33.5160 O   0  0  0  0  0  0  0  0  0  0  0  0
   39.3240   -2.9870   34.6320 O   0  0  0  0  0  0  0  0  0  0  0  0
   41.7900   -3.7710   36.4410 C   0  0  0  0  0  0  0  0  0  0  0  0
   42.7860   -4.8030   37.1620 C   0  0  0  0  0  0  0  0  0  0  0  0
   43.0870   -5.8650   36.6520 O   0  0  0  0  0  0  0  0  0  0  0  0
   43.2600   -4.5190   38.2540 O   0  0  0  0  0  0  0  0  0  0  0  0
   42.5530   -1.4510   34.5870 C   0  0  0  0  0  0  0  0  0  0  0  0
   43.1240   -0.3930   33.8710 C   0  0  0  0  0  0  0  0  0  0  0  0
   43.3970   -0.5700   32.5100 C   0  0  0  0  0  0  0  0  0  0  0  0
   43.9460    0.5010   31.8500 O   0  0  0  0  0  0  0  0  0  0  0  0
   43.5940    1.3110   34.7460 Br  0  0  0  0  0  0  0  0  0  0  0  0
  2  1  2  0
  6  1  1  0
  7  1  1  0
  3  2  1  0
  4  3  2  0
  5  4  1  0
 10  4  1  0
  6  5  2  0
 11  5  1  0
  8  7  1  0
  9  7  2  0
 12 10  1  0
 12 11  2  0
 13 12  1  0
 14 13  2  0
 26 13  1  0
 15 14  1  0
 16 15  1  0
 24 15  2  0
 17 16  1  0
 20 16  1  0
 18 17  2  0
 19 17  1  0
 21 20  1  0
 22 21  2  0
 23 21  1  0
 25 24  1  0
 26 25  2  0
 28 25  1  0
 27 26  1  0
M  CHG  4   9   1  19  -1  23  -1  27  -1
A    1
C1
A    2
C2
A    3
C3
A    4
C4
A    5
C5
A    6
C6
A    7
C7
A    8
N1
A    9
N2
A   10
N3
A   11
N4
A   12
C8
A   13
C1'
A   14
C2'
A   15
C3'
A   16
CVX
A   17
CWX
A   18
OXX
A   19
OYX
A   20
C6X
A   21
C7X
A   22
O8X
A   23
O9X
A   24
C4'
A   25
C5'
A   26
C6'
A   27
O6'
A   28
BR5'
M  END
>  <Id>  (106) 
1O2Y_847_A_246

>  <ChainId>  (106) 
A

>  <AsymId>  (106) 
C

>  <SeqNum>  (106) 
246

>  <Name>  (106) 
2-(3-{5-[AMINO(IMINIO)METHYL]-1H-BENZIMIDAZOL-2-YL}-5-BROMO-4-OXIDOPHENYL)SUCCINATE

>  <SystematicName>  (106) 
(2R)-2-[3-[5-(amino-azaniumylidene-methyl)-1H-benzimidazol-2-yl]-5-bromo-4-oxido-phenyl]butanedioate

>  <Synonyms>  (106) 
CRA_16847

>  <Type>  (106) 
NON-POLYMER

>  <Formula>  (106) 
C18 H13 Br N4 O5

>  <ObservedFormula>  (106) 
Br C18 N4 O5

>  <MolecularWeight>  (106) 
445.224

>  <ModifiedDate>  (106) 
2011-06-04

>  <Parent>  (106) 


>  <OneLetterCode>  (106) 


>  <SubcomponentList>  (106) 


>  <AmbiguousFlag>  (106) 
N

>  <InsertionCode>  (106) 


>  <InstanceId>  (106) 
1O2Y_847_A_246

>  <ChemCompId>  (106) 
847

>  <PdbId>  (106) 
1O2Y

>  <ResidueNumber>  (106) 
246

>  <InChI>  (106) 
InChI=1S/C18H15BrN4O5/c19-11-4-8(9(18(27)28)6-14(24)25)3-10(15(11)26)17-22-12-2-1-7(16(20)21)5-13(12)23-17/h1-5,9,26H,6H2,(H3,20,21)(H,22,23)(H,24,25)(H,27,28)/p-2/t9-/m1/s1

>  <InChIKey>  (106) 
SJMNJNRKVVVGRB-SECBINFHSA-L

>  <SMILES>  (106) 
c1cc2c(cc1C(=[NH2+])N)nc([nH]2)c3cc(cc(c3[O-])Br)[C@@H](CC(=O)[O-])C(=O)[O-]

>  <MissingHeavyAtoms>  (106) 
0

>  <Model>  (106) 
1

>  <AltIds>  (106) 


>  <pKI>  (106) 
5.85

>  <ChemblID>  (106) 
-

>  <standardized_canonical_smiles>  (106) 
NC(=[NH2+])c1ccc2[nH]c(-c3cc([C@@H](CC(=O)[O-])C(=O)[O-])cc(Br)c3[O-])nc2c1

$$$$
1O2V_847_A_246
     RDKit          3D

 28 30  0  0  0  0  0  0  0  0999 V2000
   43.6620   -3.4560   27.8120 C   0  0  0  0  0  0  0  0  0  0  0  0
   42.4920   -2.5030   34.3220 C   0  0  0  0  0  0  0  0  0  0  0  0
   44.0890   -2.9160   26.5630 C   0  0  0  0  0  0  0  0  0  0  0  0
   43.2520   -0.2960   32.7520 C   0  0  0  0  0  0  0  0  0  0  0  0
   43.0840    1.7460   34.9270 Br  0  0  0  0  0  0  0  0  0  0  0  0
   44.3470   -3.0680   24.2280 N   0  0  0  0  0  0  0  0  0  0  0  0
   43.9890   -1.3190   28.8370 C   0  0  0  0  0  0  0  0  0  0  0  0
   43.6290   -2.6030   28.9240 C   0  0  0  0  0  0  0  0  0  0  0  0
   42.0100   -3.8340   35.0120 C   0  0  0  0  0  0  0  0  0  0  0  0
   44.0410   -4.9790   25.4560 N   0  0  0  0  0  0  0  0  0  0  0  0
   42.5960   -1.2290   34.9070 C   0  0  0  0  0  0  0  0  0  0  0  0
   43.8540   -0.8140   30.0080 N   0  0  0  0  0  0  0  0  0  0  0  0
   42.7830   -2.6280   32.9540 C   0  0  0  0  0  0  0  0  0  0  0  0
   44.1610   -3.6760   25.3890 C   0  0  0  0  0  0  0  0  0  0  0  0
   43.4290   -1.7700   30.7650 C   0  0  0  0  0  0  0  0  0  0  0  0
   42.9770   -0.0830   34.1370 C   0  0  0  0  0  0  0  0  0  0  0  0
   44.4070   -0.7280   27.6810 C   0  0  0  0  0  0  0  0  0  0  0  0
   42.0610   -3.8530   36.6210 C   0  0  0  0  0  0  0  0  0  0  0  0
   43.2670   -2.9360   30.1540 N   0  0  0  0  0  0  0  0  0  0  0  0
   39.6640   -3.3510   34.6050 O   0  0  0  0  0  0  0  0  0  0  0  0
   40.5720   -4.1410   34.4250 C   0  0  0  0  0  0  0  0  0  0  0  0
   43.6030    0.8010   32.0050 O   0  0  0  0  0  0  0  0  0  0  0  0
   43.1630   -1.5650   32.1360 C   0  0  0  0  0  0  0  0  0  0  0  0
   43.4300   -4.7540   38.4170 O   0  0  0  0  0  0  0  0  0  0  0  0
   40.4140   -5.1680   33.7870 O   0  0  0  0  0  0  0  0  0  0  0  0
   43.0160   -4.9420   37.2840 C   0  0  0  0  0  0  0  0  0  0  0  0
   43.3430   -5.9550   36.6890 O   0  0  0  0  0  0  0  0  0  0  0  0
   44.4540   -1.5420   26.5400 C   0  0  0  0  0  0  0  0  0  0  0  0
 28 17  1  0
 17  7  2  0
  2 11  2  0
 26 27  2  0
  8  1  2  0
  7  8  1  0
 19 15  2  0
  3 14  1  0
  3 28  2  0
  7 12  1  0
 13  2  1  0
  9 21  1  0
  8 19  1  0
 21 20  1  0
 12 15  1  0
 16  5  1  0
 23 13  2  0
 23  4  1  0
  2  9  1  0
 21 25  2  0
 18 26  1  0
 14  6  2  0
 16  4  2  0
 15 23  1  0
 14 10  1  0
 11 16  1  0
  3  1  1  0
  9 18  1  0
  4 22  1  0
 26 24  1  0
M  CHG  4   6   1  20  -1  22  -1  24  -1
A    1
C6
A    2
C3'
A    3
C1
A    4
C6'
A    5
BR5'
A    6
N2
A    7
C4
A    8
C5
A    9
CVX
A   10
N1
A   11
C4'
A   12
N3
A   13
C2'
A   14
C7
A   15
C8
A   16
C5'
A   17
C3
A   18
C6X
A   19
N4
A   20
OYX
A   21
CWX
A   22
O6'
A   23
C1'
A   24
O9X
A   25
OXX
A   26
C7X
A   27
O8X
A   28
C2
M  END
>  <InstanceId>  (107) 
1O2V_847

>  <ChemCompId>  (107) 
847

>  <PdbId>  (107) 
1O2V

>  <ChainId>  (107) 
A

>  <ResidueNumber>  (107) 
246

>  <InsertionCode>  (107) 
null

>  <Model>  (107) 
1

>  <AltIds>  (107) 


>  <MissingHeavyAtoms>  (107) 
0

>  <ObservedFormula>  (107) 
C18 N4 O5 Br

>  <AsymId>  (107) 
D

>  <SeqNum>  (107) 
246

>  <Name>  (107) 
2-(3-{5-[AMINO(IMINIO)METHYL]-1H-BENZIMIDAZOL-2-YL}-5-BROMO-4-OXIDOPHENYL)SUCCINATE

>  <SystematicName>  (107) 
(2R)-2-[3-[5-(amino-azaniumylidene-methyl)-1H-benzimidazol-2-yl]-5-bromo-4-oxido-phenyl]butanedioate

>  <Synonyms>  (107) 
CRA_16847

>  <Type>  (107) 
NON-POLYMER

>  <Formula>  (107) 
C18 H13 Br N4 O5

>  <MolecularWeight>  (107) 
445.224

>  <ModifiedDate>  (107) 
2011-06-04

>  <Parent>  (107) 


>  <OneLetterCode>  (107) 


>  <SubcomponentList>  (107) 


>  <AmbiguousFlag>  (107) 
N

>  <InChI>  (107) 
InChI=1S/C18H15BrN4O5/c19-11-4-8(9(18(27)28)6-14(24)25)3-10(15(11)26)17-22-12-2-1-7(16(20)21)5-13(12)23-17/h1-5,9,26H,6H2,(H3,20,21)(H,22,23)(H,24,25)(H,27,28)/p-2/t9-/m1/s1

>  <InChIKey>  (107) 
SJMNJNRKVVVGRB-SECBINFHSA-L

>  <SMILES>  (107) 
c1cc2c(cc1C(=[NH2+])N)nc([nH]2)c3cc(cc(c3[O-])Br)[C@@H](CC(=O)[O-])C(=O)[O-]

>  <pKI>  (107) 
5.85

>  <ChemblID>  (107) 
-

>  <standardized_canonical_smiles>  (107) 
NC(=[NH2+])c1ccc2[nH]c(-c3cc([C@@H](CC(=O)[O-])C(=O)[O-])cc(Br)c3[O-])nc2c1

$$$$
1O2U_847_A_246
     RDKit          3D

 28 30  0  0  0  0  0  0  0  0999 V2000
   44.1980   -3.1170   26.0000 C   0  0  0  0  0  0  0  0  0  0  0  0
   44.5440   -1.7560   26.2980 C   0  0  0  0  0  0  0  0  0  0  0  0
   44.4350   -1.2030   27.5900 C   0  0  0  0  0  0  0  0  0  0  0  0
   43.9780   -2.0460   28.5660 C   0  0  0  0  0  0  0  0  0  0  0  0
   43.6420   -3.3250   28.3290 C   0  0  0  0  0  0  0  0  0  0  0  0
   43.7280   -3.9110   27.0820 C   0  0  0  0  0  0  0  0  0  0  0  0
   44.3220   -3.6520   24.6930 C   0  0  0  0  0  0  0  0  0  0  0  0
   44.0060   -4.9080   24.4640 N   0  0  0  0  0  0  0  0  0  0  0  0
   44.7540   -2.8890   23.7140 N   0  0  0  0  0  0  0  0  0  0  0  0
   43.7760   -1.8470   29.8240 N   0  0  0  0  0  0  0  0  0  0  0  0
   43.2270   -3.9550   29.4070 N   0  0  0  0  0  0  0  0  0  0  0  0
   43.3390   -2.9820   30.2910 C   0  0  0  0  0  0  0  0  0  0  0  0
   43.0340   -3.2050   31.6530 C   0  0  0  0  0  0  0  0  0  0  0  0
   42.4410   -4.4100   32.1240 C   0  0  0  0  0  0  0  0  0  0  0  0
   42.1390   -4.6260   33.4900 C   0  0  0  0  0  0  0  0  0  0  0  0
   41.4620   -5.9100   34.0240 C   0  0  0  0  0  0  0  0  0  0  0  0
   39.9570   -5.5950   33.7240 C   0  0  0  0  0  0  0  0  0  0  0  0
   39.4120   -6.2490   32.8500 O   0  0  0  0  0  0  0  0  0  0  0  0
   39.4180   -4.7020   34.3700 O   0  0  0  0  0  0  0  0  0  0  0  0
   41.6700   -6.2130   35.6230 C   0  0  0  0  0  0  0  0  0  0  0  0
   43.0320   -6.8500   36.1510 C   0  0  0  0  0  0  0  0  0  0  0  0
   43.2740   -8.0180   35.9280 O   0  0  0  0  0  0  0  0  0  0  0  0
   43.8160   -6.1730   36.8010 O   0  0  0  0  0  0  0  0  0  0  0  0
   42.4440   -3.6370   34.3760 C   0  0  0  0  0  0  0  0  0  0  0  0
   43.0160   -2.4870   33.9490 C   0  0  0  0  0  0  0  0  0  0  0  0
   43.3190   -2.2260   32.6260 C   0  0  0  0  0  0  0  0  0  0  0  0
   43.8690   -0.9990   32.3010 O   0  0  0  0  0  0  0  0  0  0  0  0
   43.4920   -1.3440   35.4140 Br  0  0  0  0  0  0  0  0  0  0  0  0
  2  1  2  0
  6  1  1  0
  7  1  1  0
  3  2  1  0
  4  3  2  0
  5  4  1  0
 10  4  1  0
  6  5  2  0
 11  5  1  0
  8  7  1  0
  9  7  2  0
 12 10  1  0
 12 11  2  0
 13 12  1  0
 14 13  2  0
 26 13  1  0
 15 14  1  0
 16 15  1  0
 24 15  2  0
 17 16  1  0
 20 16  1  0
 18 17  2  0
 19 17  1  0
 21 20  1  0
 22 21  2  0
 23 21  1  0
 25 24  1  0
 26 25  2  0
 28 25  1  0
 27 26  1  0
M  CHG  4   9   1  19  -1  23  -1  27  -1
A    1
C1
A    2
C2
A    3
C3
A    4
C4
A    5
C5
A    6
C6
A    7
C7
A    8
N1
A    9
N2
A   10
N3
A   11
N4
A   12
C8
A   13
C1'
A   14
C2'
A   15
C3'
A   16
CVX
A   17
CWX
A   18
OXX
A   19
OYX
A   20
C6X
A   21
C7X
A   22
O8X
A   23
O9X
A   24
C4'
A   25
C5'
A   26
C6'
A   27
O6'
A   28
BR5'
M  END
>  <Id>  (108) 
1O2U_847_A_246

>  <ChainId>  (108) 
A

>  <AsymId>  (108) 
C

>  <SeqNum>  (108) 
246

>  <Name>  (108) 
2-(3-{5-[AMINO(IMINIO)METHYL]-1H-BENZIMIDAZOL-2-YL}-5-BROMO-4-OXIDOPHENYL)SUCCINATE

>  <SystematicName>  (108) 
(2R)-2-[3-[5-(amino-azaniumylidene-methyl)-1H-benzimidazol-2-yl]-5-bromo-4-oxido-phenyl]butanedioate

>  <Synonyms>  (108) 
CRA_16847

>  <Type>  (108) 
NON-POLYMER

>  <Formula>  (108) 
C18 H13 Br N4 O5

>  <ObservedFormula>  (108) 
Br C18 N4 O5

>  <MolecularWeight>  (108) 
445.224

>  <ModifiedDate>  (108) 
2011-06-04

>  <Parent>  (108) 


>  <OneLetterCode>  (108) 


>  <SubcomponentList>  (108) 


>  <AmbiguousFlag>  (108) 
N

>  <InsertionCode>  (108) 


>  <InstanceId>  (108) 
1O2U_847_A_246

>  <ChemCompId>  (108) 
847

>  <PdbId>  (108) 
1O2U

>  <ResidueNumber>  (108) 
246

>  <InChI>  (108) 
InChI=1S/C18H15BrN4O5/c19-11-4-8(9(18(27)28)6-14(24)25)3-10(15(11)26)17-22-12-2-1-7(16(20)21)5-13(12)23-17/h1-5,9,26H,6H2,(H3,20,21)(H,22,23)(H,24,25)(H,27,28)/p-2/t9-/m1/s1

>  <InChIKey>  (108) 
SJMNJNRKVVVGRB-SECBINFHSA-L

>  <SMILES>  (108) 
c1cc2c(cc1C(=[NH2+])N)nc([nH]2)c3cc(cc(c3[O-])Br)[C@@H](CC(=O)[O-])C(=O)[O-]

>  <MissingHeavyAtoms>  (108) 
0

>  <Model>  (108) 
1

>  <AltIds>  (108) 


>  <pKI>  (108) 
5.85

>  <ChemblID>  (108) 
-

>  <standardized_canonical_smiles>  (108) 
NC(=[NH2+])c1ccc2[nH]c(-c3cc([C@@H](CC(=O)[O-])C(=O)[O-])cc(Br)c3[O-])nc2c1

$$$$
1O2W_847_A_246
     RDKit          3D

 28 30  0  0  0  0  0  0  0  0999 V2000
   44.0710   -2.9590   26.4710 C   0  0  0  0  0  0  0  0  0  0  0  0
   44.4520   -1.5810   26.4460 C   0  0  0  0  0  0  0  0  0  0  0  0
   44.3730   -0.7600   27.5730 C   0  0  0  0  0  0  0  0  0  0  0  0
   43.9140   -1.3460   28.7220 C   0  0  0  0  0  0  0  0  0  0  0  0
   43.5430   -2.6330   28.7990 C   0  0  0  0  0  0  0  0  0  0  0  0
   43.5980   -3.4890   27.7060 C   0  0  0  0  0  0  0  0  0  0  0  0
   44.1750   -3.7460   25.3230 C   0  0  0  0  0  0  0  0  0  0  0  0
   43.9530   -5.0330   25.4110 N   0  0  0  0  0  0  0  0  0  0  0  0
   44.4890   -3.1740   24.1790 N   0  0  0  0  0  0  0  0  0  0  0  0
   43.7440   -0.8520   29.8950 N   0  0  0  0  0  0  0  0  0  0  0  0
   43.1360   -2.9770   30.0040 N   0  0  0  0  0  0  0  0  0  0  0  0
   43.2930   -1.8190   30.6260 C   0  0  0  0  0  0  0  0  0  0  0  0
   43.0220   -1.6460   32.0050 C   0  0  0  0  0  0  0  0  0  0  0  0
   42.5790   -2.7150   32.8110 C   0  0  0  0  0  0  0  0  0  0  0  0
   42.3030   -2.5710   34.1780 C   0  0  0  0  0  0  0  0  0  0  0  0
   41.7700   -3.8380   34.9550 C   0  0  0  0  0  0  0  0  0  0  0  0
   40.2780   -4.0050   34.4620 C   0  0  0  0  0  0  0  0  0  0  0  0
   40.0010   -4.9840   33.7930 O   0  0  0  0  0  0  0  0  0  0  0  0
   39.4440   -3.1620   34.7340 O   0  0  0  0  0  0  0  0  0  0  0  0
   41.9590   -3.7570   36.5780 C   0  0  0  0  0  0  0  0  0  0  0  0
   42.9600   -4.8000   37.2550 C   0  0  0  0  0  0  0  0  0  0  0  0
   43.1590   -5.9060   36.7880 O   0  0  0  0  0  0  0  0  0  0  0  0
   43.5510   -4.4730   38.2740 O   0  0  0  0  0  0  0  0  0  0  0  0
   42.4850   -1.3000   34.7560 C   0  0  0  0  0  0  0  0  0  0  0  0
   42.9240   -0.2000   34.0050 C   0  0  0  0  0  0  0  0  0  0  0  0
   43.1830   -0.3900   32.6390 C   0  0  0  0  0  0  0  0  0  0  0  0
   43.5940    0.6950   31.9010 O   0  0  0  0  0  0  0  0  0  0  0  0
   43.1810    1.5710   34.8510 Br  0  0  0  0  0  0  0  0  0  0  0  0
  2  1  2  0
  6  1  1  0
  7  1  1  0
  3  2  1  0
  4  3  2  0
  5  4  1  0
 10  4  1  0
  6  5  2  0
 11  5  1  0
  8  7  1  0
  9  7  2  0
 12 10  1  0
 12 11  2  0
 13 12  1  0
 14 13  2  0
 26 13  1  0
 15 14  1  0
 16 15  1  0
 24 15  2  0
 17 16  1  0
 20 16  1  0
 18 17  2  0
 19 17  1  0
 21 20  1  0
 22 21  2  0
 23 21  1  0
 25 24  1  0
 26 25  2  0
 28 25  1  0
 27 26  1  0
M  CHG  4   9   1  19  -1  23  -1  27  -1
A    1
C1
A    2
C2
A    3
C3
A    4
C4
A    5
C5
A    6
C6
A    7
C7
A    8
N1
A    9
N2
A   10
N3
A   11
N4
A   12
C8
A   13
C1'
A   14
C2'
A   15
C3'
A   16
CVX
A   17
CWX
A   18
OXX
A   19
OYX
A   20
C6X
A   21
C7X
A   22
O8X
A   23
O9X
A   24
C4'
A   25
C5'
A   26
C6'
A   27
O6'
A   28
BR5'
M  END
>  <Id>  (109) 
1O2W_847_A_246

>  <ChainId>  (109) 
A

>  <AsymId>  (109) 
D

>  <SeqNum>  (109) 
246

>  <Name>  (109) 
2-(3-{5-[AMINO(IMINIO)METHYL]-1H-BENZIMIDAZOL-2-YL}-5-BROMO-4-OXIDOPHENYL)SUCCINATE

>  <SystematicName>  (109) 
(2R)-2-[3-[5-(amino-azaniumylidene-methyl)-1H-benzimidazol-2-yl]-5-bromo-4-oxido-phenyl]butanedioate

>  <Synonyms>  (109) 
CRA_16847

>  <Type>  (109) 
NON-POLYMER

>  <Formula>  (109) 
C18 H13 Br N4 O5

>  <ObservedFormula>  (109) 
Br C18 N4 O5

>  <MolecularWeight>  (109) 
445.224

>  <ModifiedDate>  (109) 
2011-06-04

>  <Parent>  (109) 


>  <OneLetterCode>  (109) 


>  <SubcomponentList>  (109) 


>  <AmbiguousFlag>  (109) 
N

>  <InsertionCode>  (109) 


>  <InstanceId>  (109) 
1O2W_847_A_246

>  <ChemCompId>  (109) 
847

>  <PdbId>  (109) 
1O2W

>  <ResidueNumber>  (109) 
246

>  <InChI>  (109) 
InChI=1S/C18H15BrN4O5/c19-11-4-8(9(18(27)28)6-14(24)25)3-10(15(11)26)17-22-12-2-1-7(16(20)21)5-13(12)23-17/h1-5,9,26H,6H2,(H3,20,21)(H,22,23)(H,24,25)(H,27,28)/p-2/t9-/m1/s1

>  <InChIKey>  (109) 
SJMNJNRKVVVGRB-SECBINFHSA-L

>  <SMILES>  (109) 
c1cc2c(cc1C(=[NH2+])N)nc([nH]2)c3cc(cc(c3[O-])Br)[C@@H](CC(=O)[O-])C(=O)[O-]

>  <MissingHeavyAtoms>  (109) 
0

>  <Model>  (109) 
1

>  <AltIds>  (109) 


>  <pKI>  (109) 
5.85

>  <ChemblID>  (109) 
-

>  <standardized_canonical_smiles>  (109) 
NC(=[NH2+])c1ccc2[nH]c(-c3cc([C@@H](CC(=O)[O-])C(=O)[O-])cc(Br)c3[O-])nc2c1

$$$$
1O2X_847_A_246
     RDKit          3D

 28 30  0  0  0  0  0  0  0  0999 V2000
   44.0400   -2.8750   26.4080 C   0  0  0  0  0  0  0  0  0  0  0  0
   44.4300   -1.5110   26.4210 C   0  0  0  0  0  0  0  0  0  0  0  0
   44.3550   -0.7170   27.5690 C   0  0  0  0  0  0  0  0  0  0  0  0
   43.8830   -1.3300   28.7040 C   0  0  0  0  0  0  0  0  0  0  0  0
   43.5010   -2.6140   28.7330 C   0  0  0  0  0  0  0  0  0  0  0  0
   43.5540   -3.4370   27.6240 C   0  0  0  0  0  0  0  0  0  0  0  0
   44.1340   -3.6390   25.2300 C   0  0  0  0  0  0  0  0  0  0  0  0
   43.9450   -4.9280   25.2930 N   0  0  0  0  0  0  0  0  0  0  0  0
   44.4180   -3.0420   24.0720 N   0  0  0  0  0  0  0  0  0  0  0  0
   43.6990   -0.8630   29.8910 N   0  0  0  0  0  0  0  0  0  0  0  0
   43.0700   -2.9850   29.9250 N   0  0  0  0  0  0  0  0  0  0  0  0
   43.2310   -1.8450   30.5920 C   0  0  0  0  0  0  0  0  0  0  0  0
   42.9770   -1.7160   31.9740 C   0  0  0  0  0  0  0  0  0  0  0  0
   42.5690   -2.8100   32.7540 C   0  0  0  0  0  0  0  0  0  0  0  0
   42.3060   -2.7170   34.1290 C   0  0  0  0  0  0  0  0  0  0  0  0
   41.8100   -4.0150   34.8700 C   0  0  0  0  0  0  0  0  0  0  0  0
   40.3640   -4.2390   34.3380 C   0  0  0  0  0  0  0  0  0  0  0  0
   40.1270   -5.2870   33.7780 O   0  0  0  0  0  0  0  0  0  0  0  0
   39.5330   -3.3670   34.4860 O   0  0  0  0  0  0  0  0  0  0  0  0
   41.9390   -3.9820   36.5100 C   0  0  0  0  0  0  0  0  0  0  0  0
   42.9200   -5.0460   37.1680 C   0  0  0  0  0  0  0  0  0  0  0  0
   43.2700   -6.0440   36.5670 O   0  0  0  0  0  0  0  0  0  0  0  0
   43.3390   -4.8510   38.2960 O   0  0  0  0  0  0  0  0  0  0  0  0
   42.4690   -1.4700   34.7460 C   0  0  0  0  0  0  0  0  0  0  0  0
   42.8800   -0.3800   33.9980 C   0  0  0  0  0  0  0  0  0  0  0  0
   43.1300   -0.4920   32.6390 C   0  0  0  0  0  0  0  0  0  0  0  0
   43.5170    0.6360   31.9590 O   0  0  0  0  0  0  0  0  0  0  0  0
   43.0590    1.3260   34.8980 Br  0  0  0  0  0  0  0  0  0  0  0  0
  2  1  2  0
  6  1  1  0
  7  1  1  0
  3  2  1  0
  4  3  2  0
  5  4  1  0
 10  4  1  0
  6  5  2  0
 11  5  1  0
  8  7  1  0
  9  7  2  0
 12 10  1  0
 12 11  2  0
 13 12  1  0
 14 13  2  0
 26 13  1  0
 15 14  1  0
 16 15  1  0
 24 15  2  0
 17 16  1  0
 20 16  1  0
 18 17  2  0
 19 17  1  0
 21 20  1  0
 22 21  2  0
 23 21  1  0
 25 24  1  0
 26 25  2  0
 28 25  1  0
 27 26  1  0
M  CHG  4   9   1  19  -1  23  -1  27  -1
A    1
C1
A    2
C2
A    3
C3
A    4
C4
A    5
C5
A    6
C6
A    7
C7
A    8
N1
A    9
N2
A   10
N3
A   11
N4
A   12
C8
A   13
C1'
A   14
C2'
A   15
C3'
A   16
CVX
A   17
CWX
A   18
OXX
A   19
OYX
A   20
C6X
A   21
C7X
A   22
O8X
A   23
O9X
A   24
C4'
A   25
C5'
A   26
C6'
A   27
O6'
A   28
BR5'
M  END
>  <Id>  (110) 
1O2X_847_A_246

>  <ChainId>  (110) 
A

>  <AsymId>  (110) 
D

>  <SeqNum>  (110) 
246

>  <Name>  (110) 
2-(3-{5-[AMINO(IMINIO)METHYL]-1H-BENZIMIDAZOL-2-YL}-5-BROMO-4-OXIDOPHENYL)SUCCINATE

>  <SystematicName>  (110) 
(2R)-2-[3-[5-(amino-azaniumylidene-methyl)-1H-benzimidazol-2-yl]-5-bromo-4-oxido-phenyl]butanedioate

>  <Synonyms>  (110) 
CRA_16847

>  <Type>  (110) 
NON-POLYMER

>  <Formula>  (110) 
C18 H13 Br N4 O5

>  <ObservedFormula>  (110) 
Br C18 N4 O5

>  <MolecularWeight>  (110) 
445.224

>  <ModifiedDate>  (110) 
2011-06-04

>  <Parent>  (110) 


>  <OneLetterCode>  (110) 


>  <SubcomponentList>  (110) 


>  <AmbiguousFlag>  (110) 
N

>  <InsertionCode>  (110) 


>  <InstanceId>  (110) 
1O2X_847_A_246

>  <ChemCompId>  (110) 
847

>  <PdbId>  (110) 
1O2X

>  <ResidueNumber>  (110) 
246

>  <InChI>  (110) 
InChI=1S/C18H15BrN4O5/c19-11-4-8(9(18(27)28)6-14(24)25)3-10(15(11)26)17-22-12-2-1-7(16(20)21)5-13(12)23-17/h1-5,9,26H,6H2,(H3,20,21)(H,22,23)(H,24,25)(H,27,28)/p-2/t9-/m1/s1

>  <InChIKey>  (110) 
SJMNJNRKVVVGRB-SECBINFHSA-L

>  <SMILES>  (110) 
c1cc2c(cc1C(=[NH2+])N)nc([nH]2)c3cc(cc(c3[O-])Br)[C@@H](CC(=O)[O-])C(=O)[O-]

>  <MissingHeavyAtoms>  (110) 
0

>  <Model>  (110) 
1

>  <AltIds>  (110) 


>  <pKI>  (110) 
5.85

>  <ChemblID>  (110) 
-

>  <standardized_canonical_smiles>  (110) 
NC(=[NH2+])c1ccc2[nH]c(-c3cc([C@@H](CC(=O)[O-])C(=O)[O-])cc(Br)c3[O-])nc2c1

$$$$
1O30_693_A_246
     RDKit          3D

 34 37  0  0  0  0  0  0  0  0999 V2000
   43.9790   -3.1320   26.0090 C   0  0  0  0  0  0  0  0  0  0  0  0
   44.1660   -1.7150   25.9880 C   0  0  0  0  0  0  0  0  0  0  0  0
   44.0260   -0.9210   27.1250 C   0  0  0  0  0  0  0  0  0  0  0  0
   43.6960   -1.5690   28.2900 C   0  0  0  0  0  0  0  0  0  0  0  0
   43.5080   -2.8930   28.3690 C   0  0  0  0  0  0  0  0  0  0  0  0
   43.6370   -3.7220   27.2600 C   0  0  0  0  0  0  0  0  0  0  0  0
   44.1430   -3.8810   24.8290 C   0  0  0  0  0  0  0  0  0  0  0  0
   43.8290   -5.1620   24.8090 N   0  0  0  0  0  0  0  0  0  0  0  0
   44.6190   -3.2720   23.7540 N   0  0  0  0  0  0  0  0  0  0  0  0
   43.5080   -1.0990   29.4710 N   0  0  0  0  0  0  0  0  0  0  0  0
   43.1930   -3.2870   29.5910 N   0  0  0  0  0  0  0  0  0  0  0  0
   43.2150   -2.1200   30.2090 C   0  0  0  0  0  0  0  0  0  0  0  0
   42.9990   -1.9840   31.6010 C   0  0  0  0  0  0  0  0  0  0  0  0
   42.6790   -3.0930   32.3960 C   0  0  0  0  0  0  0  0  0  0  0  0
   42.4550   -3.0140   33.7780 C   0  0  0  0  0  0  0  0  0  0  0  0
   42.0810   -4.3060   34.5590 C   0  0  0  0  0  0  0  0  0  0  0  0
   40.5760   -4.4840   34.2510 C   0  0  0  0  0  0  0  0  0  0  0  0
   40.2540   -5.3170   33.4190 O   0  0  0  0  0  0  0  0  0  0  0  0
   39.7880   -3.7720   34.8420 O   0  0  0  0  0  0  0  0  0  0  0  0
   42.3820   -4.2100   36.1260 C   0  0  0  0  0  0  0  0  0  0  0  0
   43.1110   -5.4400   36.7760 C   0  0  0  0  0  0  0  0  0  0  0  0
   42.9800   -6.5550   36.2930 O   0  0  0  0  0  0  0  0  0  0  0  0
   43.7970   -5.2220   37.7740 O   0  0  0  0  0  0  0  0  0  0  0  0
   42.5660   -1.7720   34.3740 C   0  0  0  0  0  0  0  0  0  0  0  0
   42.8880   -0.6190   33.6550 C   0  0  0  0  0  0  0  0  0  0  0  0
   43.0930   -0.7290   32.2710 C   0  0  0  0  0  0  0  0  0  0  0  0
   43.3600    0.4410   31.5780 O   0  0  0  0  0  0  0  0  0  0  0  0
   43.0410    0.5860   34.3410 C   0  0  0  0  0  0  0  0  0  0  0  0
   44.2770    1.2600   34.3350 C   0  0  0  0  0  0  0  0  0  0  0  0
   44.4490    2.4280   35.0450 C   0  0  0  0  0  0  0  0  0  0  0  0
   43.3990    2.9670   35.7810 C   0  0  0  0  0  0  0  0  0  0  0  0
   42.1740    2.3320   35.7960 C   0  0  0  0  0  0  0  0  0  0  0  0
   41.9990    1.1560   35.0860 C   0  0  0  0  0  0  0  0  0  0  0  0
   45.3690    0.7730   33.5920 F   0  0  0  0  0  0  0  0  0  0  0  0
  2  1  2  0
  6  1  1  0
  7  1  1  0
  3  2  1  0
  4  3  2  0
  5  4  1  0
 10  4  1  0
  6  5  2  0
 11  5  1  0
  8  7  1  0
  9  7  2  0
 12 10  1  0
 12 11  2  0
 13 12  1  0
 14 13  2  0
 26 13  1  0
 15 14  1  0
 16 15  1  0
 24 15  2  0
 17 16  1  0
 20 16  1  0
 18 17  2  0
 19 17  1  0
 21 20  1  0
 22 21  2  0
 23 21  1  0
 25 24  1  0
 26 25  2  0
 28 25  1  0
 27 26  1  0
 29 28  2  0
 33 28  1  0
 30 29  1  0
 34 29  1  0
 31 30  2  0
 32 31  1  0
 33 32  2  0
M  CHG  4   9   1  19  -1  23  -1  27  -1
A    1
C1
A    2
C2
A    3
C3
A    4
C4
A    5
C5
A    6
C6
A    7
C7
A    8
N1
A    9
N2
A   10
N3
A   11
N4
A   12
C8
A   13
C1'
A   14
C2'
A   15
C3'
A   16
CVX
A   17
CWX
A   18
OXX
A   19
OYX
A   20
C6X
A   21
C7X
A   22
O8X
A   23
O9X
A   24
C4'
A   25
C5'
A   26
C6'
A   27
O6'
A   28
C1B
A   29
C2B
A   30
C3B
A   31
C4B
A   32
C5B
A   33
C6B
A   34
F2B
M  END
>  <Id>  (111) 
1O30_693_A_246

>  <ChainId>  (111) 
A

>  <AsymId>  (111) 
D

>  <SeqNum>  (111) 
246

>  <Name>  (111) 
2-(5-{5-[AMINO(IMINIO)METHYL]-1H-BENZIMIDAZOL-2-YL}-2'-FLUORO-6-OXIDO-1,1'-BIPHENYL-3-YL)SUCCINATE

>  <SystematicName>  (111) 
(2R)-2-[3-[5-(amino-azaniumylidene-methyl)-1H-benzimidazol-2-yl]-5-(2-fluorophenyl)-4-oxido-phenyl]butanedioate

>  <Synonyms>  (111) 
CRA_17693

>  <Type>  (111) 
NON-POLYMER

>  <Formula>  (111) 
C24 H17 F N4 O5

>  <ObservedFormula>  (111) 
C24 F N4 O5

>  <MolecularWeight>  (111) 
460.414

>  <ModifiedDate>  (111) 
2011-06-04

>  <Parent>  (111) 


>  <OneLetterCode>  (111) 


>  <SubcomponentList>  (111) 


>  <AmbiguousFlag>  (111) 
N

>  <InsertionCode>  (111) 


>  <InstanceId>  (111) 
1O30_693_A_246

>  <ChemCompId>  (111) 
693

>  <PdbId>  (111) 
1O30

>  <ResidueNumber>  (111) 
246

>  <InChI>  (111) 
InChI=1S/C24H19FN4O5/c25-17-4-2-1-3-13(17)15-7-12(14(24(33)34)10-20(30)31)8-16(21(15)32)23-28-18-6-5-11(22(26)27)9-19(18)29-23/h1-9,14,32H,10H2,(H3,26,27)(H,28,29)(H,30,31)(H,33,34)/p-2/t14-/m1/s1

>  <InChIKey>  (111) 
XCOFROALSAFROV-CQSZACIVSA-L

>  <SMILES>  (111) 
c1ccc(c(c1)c2cc(cc(c2[O-])c3[nH]c4ccc(cc4n3)C(=[NH2+])N)[C@@H](CC(=O)[O-])C(=O)[O-])F

>  <MissingHeavyAtoms>  (111) 
0

>  <Model>  (111) 
1

>  <AltIds>  (111) 


>  <pKI>  (111) 
6.77

>  <ChemblID>  (111) 
-

>  <standardized_canonical_smiles>  (111) 
NC(=[NH2+])c1ccc2[nH]c(-c3cc([C@@H](CC(=O)[O-])C(=O)[O-])cc(-c4ccccc4F)c3[O-])nc2c1

$$$$
1O36_607_A_246
     RDKit          3D

 34 37  0  0  0  0  0  0  0  0999 V2000
   44.3040   -3.0640   26.2710 C   0  0  0  0  0  0  0  0  0  0  0  0
   44.6840   -1.6960   26.2610 C   0  0  0  0  0  0  0  0  0  0  0  0
   44.6520   -0.8960   27.4160 C   0  0  0  0  0  0  0  0  0  0  0  0
   44.2350   -1.5020   28.5660 C   0  0  0  0  0  0  0  0  0  0  0  0
   43.8740   -2.7760   28.6260 C   0  0  0  0  0  0  0  0  0  0  0  0
   43.8850   -3.6050   27.5140 C   0  0  0  0  0  0  0  0  0  0  0  0
   44.3500   -3.8360   25.0790 C   0  0  0  0  0  0  0  0  0  0  0  0
   44.1780   -5.1400   25.0960 N   0  0  0  0  0  0  0  0  0  0  0  0
   44.5680   -3.2230   23.9400 N   0  0  0  0  0  0  0  0  0  0  0  0
   44.1090   -1.0350   29.7590 N   0  0  0  0  0  0  0  0  0  0  0  0
   43.5120   -3.1480   29.8460 N   0  0  0  0  0  0  0  0  0  0  0  0
   43.6840   -2.0190   30.4880 C   0  0  0  0  0  0  0  0  0  0  0  0
   43.4220   -1.9020   31.8690 C   0  0  0  0  0  0  0  0  0  0  0  0
   43.1040   -3.0060   32.6710 C   0  0  0  0  0  0  0  0  0  0  0  0
   42.8430   -2.8800   34.0280 C   0  0  0  0  0  0  0  0  0  0  0  0
   42.4670   -4.1250   34.8700 C   0  0  0  0  0  0  0  0  0  0  0  0
   40.9580   -4.2980   34.6420 C   0  0  0  0  0  0  0  0  0  0  0  0
   40.5990   -5.1040   33.8060 O   0  0  0  0  0  0  0  0  0  0  0  0
   40.2030   -3.6120   35.3000 O   0  0  0  0  0  0  0  0  0  0  0  0
   42.7830   -3.9810   36.4330 C   0  0  0  0  0  0  0  0  0  0  0  0
   43.4210   -5.2510   37.1090 C   0  0  0  0  0  0  0  0  0  0  0  0
   43.2000   -6.3530   36.6280 O   0  0  0  0  0  0  0  0  0  0  0  0
   44.1200   -5.0800   38.1090 O   0  0  0  0  0  0  0  0  0  0  0  0
   42.9110   -1.6360   34.5890 C   0  0  0  0  0  0  0  0  0  0  0  0
   43.2220   -0.4960   33.8670 C   0  0  0  0  0  0  0  0  0  0  0  0
   43.4750   -0.6550   32.5080 C   0  0  0  0  0  0  0  0  0  0  0  0
   43.7800    0.4470   31.7460 O   0  0  0  0  0  0  0  0  0  0  0  0
   43.2790    0.7330   34.5440 C   0  0  0  0  0  0  0  0  0  0  0  0
   44.4740    1.4400   34.7030 C   0  0  0  0  0  0  0  0  0  0  0  0
   44.5570    2.6350   35.4040 C   0  0  0  0  0  0  0  0  0  0  0  0
   43.4290    3.1780   35.9740 C   0  0  0  0  0  0  0  0  0  0  0  0
   42.2160    2.5230   35.8410 C   0  0  0  0  0  0  0  0  0  0  0  0
   42.1430    1.3170   35.1350 C   0  0  0  0  0  0  0  0  0  0  0  0
   45.6280    1.0830   34.2030 N   0  0  0  0  0  0  0  0  0  0  0  0
  2  1  2  0
  6  1  1  0
  7  1  1  0
  3  2  1  0
  4  3  2  0
  5  4  1  0
 10  4  1  0
  6  5  2  0
 11  5  1  0
  8  7  1  0
  9  7  2  0
 12 10  1  0
 12 11  2  0
 13 12  1  0
 14 13  2  0
 26 13  1  0
 15 14  1  0
 16 15  1  0
 24 15  2  0
 17 16  1  0
 20 16  1  0
 18 17  2  0
 19 17  1  0
 21 20  1  0
 22 21  2  0
 23 21  1  0
 25 24  1  0
 26 25  2  0
 28 25  1  0
 27 26  1  0
 29 28  2  0
 33 28  1  0
 30 29  1  0
 34 29  1  0
 31 30  2  0
 32 31  1  0
 33 32  2  0
M  CHG  4   9   1  19  -1  23  -1  27  -1
A    1
C1
A    2
C2
A    3
C3
A    4
C4
A    5
C5
A    6
C6
A    7
C7
A    8
N1
A    9
N2
A   10
N3
A   11
N4
A   12
C8
A   13
C1'
A   14
C2'
A   15
C3'
A   16
CVX
A   17
CWX
A   18
OXX
A   19
OYX
A   20
C6X
A   21
C7X
A   22
O8X
A   23
O9X
A   24
C4'
A   25
C5'
A   26
C6'
A   27
O6'
A   28
C1B
A   29
C2B
A   30
C3B
A   31
C4B
A   32
C5B
A   33
C6B
A   34
N2B
M  END
>  <Id>  (112) 
1O36_607_A_246

>  <ChainId>  (112) 
A

>  <AsymId>  (112) 
D

>  <SeqNum>  (112) 
246

>  <Name>  (112) 
2-(2'-AMINO-5-{5-[AMINO(IMINIO)METHYL]-1H-BENZIMIDAZOL-2-YL}-6-OXIDO-1,1'-BIPHENYL-3-YL)SUCCINATE

>  <SystematicName>  (112) 
(2R)-2-[3-[5-(amino-azaniumylidene-methyl)-1H-benzimidazol-2-yl]-5-(2-aminophenyl)-4-oxido-phenyl]butanedioate

>  <Synonyms>  (112) 
CRA_18607

>  <Type>  (112) 
NON-POLYMER

>  <Formula>  (112) 
C24 H19 N5 O5

>  <ObservedFormula>  (112) 
C24 N5 O5

>  <MolecularWeight>  (112) 
457.438

>  <ModifiedDate>  (112) 
2011-06-04

>  <Parent>  (112) 


>  <OneLetterCode>  (112) 


>  <SubcomponentList>  (112) 


>  <AmbiguousFlag>  (112) 
N

>  <InsertionCode>  (112) 


>  <InstanceId>  (112) 
1O36_607_A_246

>  <ChemCompId>  (112) 
607

>  <PdbId>  (112) 
1O36

>  <ResidueNumber>  (112) 
246

>  <InChI>  (112) 
InChI=1S/C24H21N5O5/c25-17-4-2-1-3-13(17)15-7-12(14(24(33)34)10-20(30)31)8-16(21(15)32)23-28-18-6-5-11(22(26)27)9-19(18)29-23/h1-9,14,32H,10,25H2,(H3,26,27)(H,28,29)(H,30,31)(H,33,34)/p-2/t14-/m1/s1

>  <InChIKey>  (112) 
KLIWSPNZLMZLEF-CQSZACIVSA-L

>  <SMILES>  (112) 
c1ccc(c(c1)c2cc(cc(c2[O-])c3[nH]c4ccc(cc4n3)C(=[NH2+])N)[C@@H](CC(=O)[O-])C(=O)[O-])N

>  <MissingHeavyAtoms>  (112) 
0

>  <Model>  (112) 
1

>  <AltIds>  (112) 


>  <pKI>  (112) 
5.96

>  <ChemblID>  (112) 
-

>  <standardized_canonical_smiles>  (112) 
NC(=[NH2+])c1ccc2[nH]c(-c3cc([C@@H](CC(=O)[O-])C(=O)[O-])cc(-c4ccccc4N)c3[O-])nc2c1

$$$$
1O37_653_A_246
     RDKit          3D

 28 31  0  0  0  0  0  0  0  0999 V2000
   44.4980   -2.9990   26.1780 C   0  0  0  0  0  0  0  0  0  0  0  0
   44.8270   -1.6290   26.2690 C   0  0  0  0  0  0  0  0  0  0  0  0
   44.7470   -0.8890   27.4430 C   0  0  0  0  0  0  0  0  0  0  0  0
   44.3220   -1.5550   28.5580 C   0  0  0  0  0  0  0  0  0  0  0  0
   44.0010   -2.8480   28.5460 C   0  0  0  0  0  0  0  0  0  0  0  0
   44.0660   -3.6350   27.3920 C   0  0  0  0  0  0  0  0  0  0  0  0
   44.5970   -3.6560   24.9010 C   0  0  0  0  0  0  0  0  0  0  0  0
   44.3260   -4.9420   24.7860 N   0  0  0  0  0  0  0  0  0  0  0  0
   44.9420   -2.9510   23.8290 N   0  0  0  0  0  0  0  0  0  0  0  0
   44.1480   -1.1200   29.7620 N   0  0  0  0  0  0  0  0  0  0  0  0
   43.6220   -3.2620   29.7350 N   0  0  0  0  0  0  0  0  0  0  0  0
   43.7430   -2.1340   30.4310 C   0  0  0  0  0  0  0  0  0  0  0  0
   43.4620   -2.0560   31.8270 C   0  0  0  0  0  0  0  0  0  0  0  0
   43.0700   -3.2040   32.5180 C   0  0  0  0  0  0  0  0  0  0  0  0
   42.7820   -3.1860   33.8820 C   0  0  0  0  0  0  0  0  0  0  0  0
   42.3010   -4.1650   34.7970 C   0  0  0  0  0  0  0  0  0  0  0  0
   40.8180   -4.4770   34.5760 C   0  0  0  0  0  0  0  0  0  0  0  0
   40.5260   -5.8350   35.1270 N   0  0  0  0  0  0  0  0  0  0  0  0
   42.8870   -2.0100   34.6010 C   0  0  0  0  0  0  0  0  0  0  0  0
   43.2720   -0.8370   33.9940 C   0  0  0  0  0  0  0  0  0  0  0  0
   43.5500   -0.8710   32.6030 C   0  0  0  0  0  0  0  0  0  0  0  0
   43.8870    0.3130   32.0000 O   0  0  0  0  0  0  0  0  0  0  0  0
   43.4070    0.3040   34.7740 C   0  0  0  0  0  0  0  0  0  0  0  0
   44.6160    1.0330   34.8030 C   0  0  0  0  0  0  0  0  0  0  0  0
   44.7790    2.1860   35.5950 C   0  0  0  0  0  0  0  0  0  0  0  0
   43.7310    2.6460   36.3850 C   0  0  0  0  0  0  0  0  0  0  0  0
   42.5200    1.9470   36.3770 C   0  0  0  0  0  0  0  0  0  0  0  0
   42.3600    0.7880   35.5810 C   0  0  0  0  0  0  0  0  0  0  0  0
  2  1  2  0
  6  1  1  0
  7  1  1  0
  3  2  1  0
  4  3  2  0
  5  4  1  0
 10  4  1  0
  6  5  2  0
 11  5  1  0
  8  7  1  0
  9  7  2  0
 12 10  1  0
 12 11  2  0
 13 12  1  0
 14 13  2  0
 21 13  1  0
 15 14  1  0
 16 15  1  0
 19 15  2  0
 17 16  1  0
 18 17  1  0
 20 19  1  0
 21 20  2  0
 23 20  1  0
 22 21  1  0
 24 23  2  0
 28 23  1  0
 25 24  1  0
 26 25  2  0
 27 26  1  0
 28 27  2  0
M  CHG  3   9   1  18   1  22  -1
A    1
C1
A    2
C2
A    3
C3
A    4
C4
A    5
C5
A    6
C6
A    7
C7
A    8
N1
A    9
N2
A   10
N3
A   11
N4
A   12
C8
A   13
C1'
A   14
C2'
A   15
C3'
A   16
CV'
A   17
CW'
A   18
NX'
A   19
C4'
A   20
C5'
A   21
C6'
A   22
O6'
A   23
C1B
A   24
C2B
A   25
C3B
A   26
C4B
A   27
C5B
A   28
C6B
M  END
>  <Id>  (113) 
1O37_653_A_246

>  <ChainId>  (113) 
A

>  <AsymId>  (113) 
C

>  <SeqNum>  (113) 
246

>  <Name>  (113) 
5-(2-AMINOETHYL)-3-{5-[AMINO(IMINIO)METHYL]-1H-BENZIMIDAZOL-2-YL}-1,1'-BIPHENYL-2-OLATE

>  <SystematicName>  (113) 
2-[5-(amino-azaniumylidene-methyl)-1H-benzimidazol-2-yl]-4-(2-azaniumylethyl)-6-phenyl-phenolate

>  <Synonyms>  (113) 
CRA_23653

>  <Type>  (113) 
NON-POLYMER

>  <Formula>  (113) 
C22 H22 N5 O

>  <ObservedFormula>  (113) 
C22 N5 O

>  <MolecularWeight>  (113) 
372.443

>  <ModifiedDate>  (113) 
2011-06-04

>  <Parent>  (113) 


>  <OneLetterCode>  (113) 


>  <SubcomponentList>  (113) 


>  <AmbiguousFlag>  (113) 
N

>  <InsertionCode>  (113) 


>  <InstanceId>  (113) 
1O37_653_A_246

>  <ChemCompId>  (113) 
653

>  <PdbId>  (113) 
1O37

>  <ResidueNumber>  (113) 
246

>  <InChI>  (113) 
InChI=1S/C22H21N5O/c23-9-8-13-10-16(14-4-2-1-3-5-14)20(28)17(11-13)22-26-18-7-6-15(21(24)25)12-19(18)27-22/h1-7,10-12,28H,8-9,23H2,(H3,24,25)(H,26,27)/p+1

>  <InChIKey>  (113) 
YYUZFCLHOQHMPT-UHFFFAOYSA-O

>  <SMILES>  (113) 
c1ccc(cc1)c2cc(cc(c2[O-])c3[nH]c4ccc(cc4n3)C(=[NH2+])N)CC[NH3+]

>  <MissingHeavyAtoms>  (113) 
0

>  <Model>  (113) 
1

>  <AltIds>  (113) 


>  <pKI>  (113) 
6.82

>  <ChemblID>  (113) 
-

>  <standardized_canonical_smiles>  (113) 
NC(=[NH2+])c1ccc2[nH]c(-c3cc(CC[NH3+])cc(-c4ccccc4)c3[O-])nc2c1

$$$$
1O38_653_A_246
     RDKit          3D

 28 31  0  0  0  0  0  0  0  0999 V2000
   44.0220   -3.0310   26.2340 C   0  0  0  0  0  0  0  0  0  0  0  0
   44.3330   -1.6250   26.2420 C   0  0  0  0  0  0  0  0  0  0  0  0
   44.2310   -0.8210   27.3730 C   0  0  0  0  0  0  0  0  0  0  0  0
   43.8170   -1.4340   28.5140 C   0  0  0  0  0  0  0  0  0  0  0  0
   43.5170   -2.7500   28.5750 C   0  0  0  0  0  0  0  0  0  0  0  0
   43.5910   -3.6040   27.4670 C   0  0  0  0  0  0  0  0  0  0  0  0
   44.1530   -3.7910   25.0430 C   0  0  0  0  0  0  0  0  0  0  0  0
   43.9290   -5.0950   25.0620 N   0  0  0  0  0  0  0  0  0  0  0  0
   44.4950   -3.1640   23.9270 N   0  0  0  0  0  0  0  0  0  0  0  0
   43.6520   -0.9510   29.6990 N   0  0  0  0  0  0  0  0  0  0  0  0
   43.1500   -3.1160   29.7900 N   0  0  0  0  0  0  0  0  0  0  0  0
   43.2560   -1.9520   30.4260 C   0  0  0  0  0  0  0  0  0  0  0  0
   43.0090   -1.8400   31.8180 C   0  0  0  0  0  0  0  0  0  0  0  0
   42.6560   -2.9710   32.5930 C   0  0  0  0  0  0  0  0  0  0  0  0
   42.4060   -2.8870   33.9640 C   0  0  0  0  0  0  0  0  0  0  0  0
   42.0430   -4.1490   34.8160 C   0  0  0  0  0  0  0  0  0  0  0  0
   40.5370   -4.5580   34.6550 C   0  0  0  0  0  0  0  0  0  0  0  0
   40.3380   -5.9590   35.2030 N   0  0  0  0  0  0  0  0  0  0  0  0
   42.5060   -1.6430   34.5750 C   0  0  0  0  0  0  0  0  0  0  0  0
   42.8490   -0.4840   33.8720 C   0  0  0  0  0  0  0  0  0  0  0  0
   43.0940   -0.6050   32.4980 C   0  0  0  0  0  0  0  0  0  0  0  0
   43.4330    0.5290   31.8090 O   0  0  0  0  0  0  0  0  0  0  0  0
   42.9280    0.7280   34.5730 C   0  0  0  0  0  0  0  0  0  0  0  0
   44.1210    1.4670   34.6850 C   0  0  0  0  0  0  0  0  0  0  0  0
   44.1730    2.6630   35.4210 C   0  0  0  0  0  0  0  0  0  0  0  0
   43.0420    3.1580   36.0620 C   0  0  0  0  0  0  0  0  0  0  0  0
   41.8450    2.4450   35.9660 C   0  0  0  0  0  0  0  0  0  0  0  0
   41.7920    1.2510   35.2280 C   0  0  0  0  0  0  0  0  0  0  0  0
  2  1  2  0
  6  1  1  0
  7  1  1  0
  3  2  1  0
  4  3  2  0
  5  4  1  0
 10  4  1  0
  6  5  2  0
 11  5  1  0
  8  7  1  0
  9  7  2  0
 12 10  1  0
 12 11  2  0
 13 12  1  0
 14 13  2  0
 21 13  1  0
 15 14  1  0
 16 15  1  0
 19 15  2  0
 17 16  1  0
 18 17  1  0
 20 19  1  0
 21 20  2  0
 23 20  1  0
 22 21  1  0
 24 23  2  0
 28 23  1  0
 25 24  1  0
 26 25  2  0
 27 26  1  0
 28 27  2  0
M  CHG  3   9   1  18   1  22  -1
A    1
C1
A    2
C2
A    3
C3
A    4
C4
A    5
C5
A    6
C6
A    7
C7
A    8
N1
A    9
N2
A   10
N3
A   11
N4
A   12
C8
A   13
C1'
A   14
C2'
A   15
C3'
A   16
CV'
A   17
CW'
A   18
NX'
A   19
C4'
A   20
C5'
A   21
C6'
A   22
O6'
A   23
C1B
A   24
C2B
A   25
C3B
A   26
C4B
A   27
C5B
A   28
C6B
M  END
>  <Id>  (114) 
1O38_653_A_246

>  <ChainId>  (114) 
A

>  <AsymId>  (114) 
D

>  <SeqNum>  (114) 
246

>  <Name>  (114) 
5-(2-AMINOETHYL)-3-{5-[AMINO(IMINIO)METHYL]-1H-BENZIMIDAZOL-2-YL}-1,1'-BIPHENYL-2-OLATE

>  <SystematicName>  (114) 
2-[5-(amino-azaniumylidene-methyl)-1H-benzimidazol-2-yl]-4-(2-azaniumylethyl)-6-phenyl-phenolate

>  <Synonyms>  (114) 
CRA_23653

>  <Type>  (114) 
NON-POLYMER

>  <Formula>  (114) 
C22 H22 N5 O

>  <ObservedFormula>  (114) 
C22 N5 O

>  <MolecularWeight>  (114) 
372.443

>  <ModifiedDate>  (114) 
2011-06-04

>  <Parent>  (114) 


>  <OneLetterCode>  (114) 


>  <SubcomponentList>  (114) 


>  <AmbiguousFlag>  (114) 
N

>  <InsertionCode>  (114) 


>  <InstanceId>  (114) 
1O38_653_A_246

>  <ChemCompId>  (114) 
653

>  <PdbId>  (114) 
1O38

>  <ResidueNumber>  (114) 
246

>  <InChI>  (114) 
InChI=1S/C22H21N5O/c23-9-8-13-10-16(14-4-2-1-3-5-14)20(28)17(11-13)22-26-18-7-6-15(21(24)25)12-19(18)27-22/h1-7,10-12,28H,8-9,23H2,(H3,24,25)(H,26,27)/p+1

>  <InChIKey>  (114) 
YYUZFCLHOQHMPT-UHFFFAOYSA-O

>  <SMILES>  (114) 
c1ccc(cc1)c2cc(cc(c2[O-])c3[nH]c4ccc(cc4n3)C(=[NH2+])N)CC[NH3+]

>  <MissingHeavyAtoms>  (114) 
0

>  <Model>  (114) 
1

>  <AltIds>  (114) 


>  <pKI>  (114) 
6.82

>  <ChemblID>  (114) 
-

>  <standardized_canonical_smiles>  (114) 
NC(=[NH2+])c1ccc2[nH]c(-c3cc(CC[NH3+])cc(-c4ccccc4)c3[O-])nc2c1

$$$$
1O2H_CR3_A_246
     RDKit          3D

 25 28  0  0  0  0  0  0  0  0999 V2000
   44.1400   -3.1040   25.9440 C   0  0  0  0  0  0  0  0  0  0  0  0
   44.5190   -1.7550   25.9650 C   0  0  0  0  0  0  0  0  0  0  0  0
   44.4780   -1.0230   27.1310 C   0  0  0  0  0  0  0  0  0  0  0  0
   44.0620   -1.6440   28.2700 C   0  0  0  0  0  0  0  0  0  0  0  0
   43.6940   -2.9320   28.3020 C   0  0  0  0  0  0  0  0  0  0  0  0
   43.7190   -3.7100   27.1470 C   0  0  0  0  0  0  0  0  0  0  0  0
   44.1870   -3.7960   24.7220 C   0  0  0  0  0  0  0  0  0  0  0  0
   43.7630   -5.0340   24.6370 N   0  0  0  0  0  0  0  0  0  0  0  0
   44.6520   -3.1710   23.6660 N   0  0  0  0  0  0  0  0  0  0  0  0
   43.9310   -1.1950   29.4660 N   0  0  0  0  0  0  0  0  0  0  0  0
   43.3260   -3.2990   29.5100 C   0  0  0  0  0  0  0  0  0  0  0  0
   43.4970   -2.1720   30.2060 C   0  0  0  0  0  0  0  0  0  0  0  0
   43.2730   -2.0230   31.5870 C   0  0  0  0  0  0  0  0  0  0  0  0
   42.9380   -3.1330   32.3600 C   0  0  0  0  0  0  0  0  0  0  0  0
   42.7530   -3.0090   33.7340 C   0  0  0  0  0  0  0  0  0  0  0  0
   42.9010   -1.7850   34.3510 C   0  0  0  0  0  0  0  0  0  0  0  0
   43.2380   -0.6650   33.6030 C   0  0  0  0  0  0  0  0  0  0  0  0
   43.4200    0.5850   34.1790 O   0  0  0  0  0  0  0  0  0  0  0  0
   43.4190   -0.7770   32.2330 C   0  0  0  0  0  0  0  0  0  0  0  0
   43.7230    0.3890   31.5520 O   0  0  0  0  0  0  0  0  0  0  0  0
   43.2820    2.3340   35.7960 C   0  0  0  0  0  0  0  0  0  0  0  0
   43.6090    0.8510   35.5750 C   0  0  0  0  0  0  0  0  0  0  0  0
   45.1250    0.7100   35.8680 C   0  0  0  0  0  0  0  0  0  0  0  0
   45.5920    2.0560   36.4380 C   0  0  0  0  0  0  0  0  0  0  0  0
   44.3290    2.8400   36.7720 C   0  0  0  0  0  0  0  0  0  0  0  0
  2  1  2  0
  6  1  1  0
  7  1  1  0
  3  2  1  0
  4  3  2  0
  5  4  1  0
 10  4  1  0
  6  5  2  0
 11  5  1  0
  8  7  1  0
  9  7  2  0
 12 10  1  0
 12 11  2  0
 13 12  1  0
 14 13  2  0
 19 13  1  0
 15 14  1  0
 16 15  2  0
 17 16  1  0
 18 17  1  0
 19 17  2  0
 22 18  1  0
 20 19  1  0
 22 21  1  0
 25 21  1  0
 23 22  1  0
 24 23  1  0
 25 24  1  0
M  CHG  2   9   1  20  -1
A    1
C1
A    2
C2
A    3
C3
A    4
C4
A    5
C5
A    6
C6
A    7
C7
A    8
N1
A    9
N2
A   10
N3
A   11
CN4
A   12
C8
A   13
C1'
A   14
C2'
A   15
C3'
A   16
C4'
A   17
C5'
A   18
O5'
A   19
C6'
A   20
O6'
A   21
C1B
A   22
C2B
A   23
C3B
A   24
C4B
A   25
C5B
M  END
>  <Id>  (115) 
1O2H_CR3_A_246

>  <ChainId>  (115) 
A

>  <AsymId>  (115) 
C

>  <SeqNum>  (115) 
246

>  <Name>  (115) 
2-{5-[AMINO(IMINIO)METHYL]-1H-INDOL-2-YL}-6-(CYCLOPENTYLOXY)BENZENOLATE

>  <SystematicName>  (115) 
2-[5-(amino-azaniumylidene-methyl)-1H-indol-2-yl]-6-cyclopentyloxy-phenolate

>  <Synonyms>  (115) 
CRA_10433

>  <Type>  (115) 
NON-POLYMER

>  <Formula>  (115) 
C20 H21 N3 O2

>  <ObservedFormula>  (115) 
C20 N3 O2

>  <MolecularWeight>  (115) 
335.4

>  <ModifiedDate>  (115) 
2011-06-04

>  <Parent>  (115) 


>  <OneLetterCode>  (115) 


>  <SubcomponentList>  (115) 


>  <AmbiguousFlag>  (115) 
N

>  <InsertionCode>  (115) 


>  <InstanceId>  (115) 
1O2H_CR3_A_246

>  <ChemCompId>  (115) 
CR3

>  <PdbId>  (115) 
1O2H

>  <ResidueNumber>  (115) 
246

>  <InChI>  (115) 
InChI=1S/C20H21N3O2/c21-20(22)12-8-9-16-13(10-12)11-17(23-16)15-6-3-7-18(19(15)24)25-14-4-1-2-5-14/h3,6-11,14,23-24H,1-2,4-5H2,(H3,21,22)

>  <InChIKey>  (115) 
CFSQPEBVGUSQII-UHFFFAOYSA-N

>  <SMILES>  (115) 
c1cc(c(c(c1)OC2CCCC2)[O-])c3cc4cc(ccc4[nH]3)C(=[NH2+])N

>  <MissingHeavyAtoms>  (115) 
0

>  <Model>  (115) 
1

>  <AltIds>  (115) 


>  <pKI>  (115) 
7.17

>  <ChemblID>  (115) 
-

>  <standardized_canonical_smiles>  (115) 
NC(=[NH2+])c1ccc2[nH]c(-c3cccc(OC4CCCC4)c3[O-])cc2c1

$$$$
1O2I_655_A_246
     RDKit          3D

 25 28  0  0  0  0  0  0  0  0999 V2000
   44.2910   -2.8800   26.6770 C   0  0  0  0  0  0  0  0  0  0  0  0
   44.8730   -1.5600   26.6540 C   0  0  0  0  0  0  0  0  0  0  0  0
   44.8730   -0.7700   27.7870 C   0  0  0  0  0  0  0  0  0  0  0  0
   44.3550   -1.2920   28.9330 C   0  0  0  0  0  0  0  0  0  0  0  0
   43.8270   -2.5370   29.0070 C   0  0  0  0  0  0  0  0  0  0  0  0
   43.7740   -3.3660   27.8810 C   0  0  0  0  0  0  0  0  0  0  0  0
   44.3180   -3.6710   25.4940 C   0  0  0  0  0  0  0  0  0  0  0  0
   44.1780   -4.9710   25.5880 N   0  0  0  0  0  0  0  0  0  0  0  0
   44.4910   -3.0690   24.3210 N   0  0  0  0  0  0  0  0  0  0  0  0
   44.2750   -0.7850   30.1160 N   0  0  0  0  0  0  0  0  0  0  0  0
   43.3910   -2.8100   30.2220 N   0  0  0  0  0  0  0  0  0  0  0  0
   43.6860   -1.6870   30.8690 C   0  0  0  0  0  0  0  0  0  0  0  0
   43.4100   -1.5280   32.2170 C   0  0  0  0  0  0  0  0  0  0  0  0
   43.0360   -2.6290   32.9930 C   0  0  0  0  0  0  0  0  0  0  0  0
   42.7500   -2.5050   34.3370 C   0  0  0  0  0  0  0  0  0  0  0  0
   42.8480   -1.2520   34.9300 C   0  0  0  0  0  0  0  0  0  0  0  0
   43.2120   -0.1220   34.1560 C   0  0  0  0  0  0  0  0  0  0  0  0
   43.3400    1.1490   34.6740 O   0  0  0  0  0  0  0  0  0  0  0  0
   43.4950   -0.2770   32.8010 C   0  0  0  0  0  0  0  0  0  0  0  0
   43.8480    0.7960   32.0070 O   0  0  0  0  0  0  0  0  0  0  0  0
   42.3420    2.7680   35.8540 C   0  0  0  0  0  0  0  0  0  0  0  0
   43.0050    1.4420   36.0250 C   0  0  0  0  0  0  0  0  0  0  0  0
   44.2740    1.6870   36.7960 C   0  0  0  0  0  0  0  0  0  0  0  0
   44.5750    3.1660   36.5730 C   0  0  0  0  0  0  0  0  0  0  0  0
   43.1880    3.7500   36.6150 C   0  0  0  0  0  0  0  0  0  0  0  0
  2  1  2  0
  6  1  1  0
  7  1  1  0
  3  2  1  0
  4  3  2  0
  5  4  1  0
 10  4  1  0
  6  5  2  0
 11  5  1  0
  8  7  1  0
  9  7  2  0
 12 10  1  0
 12 11  2  0
 13 12  1  0
 14 13  2  0
 19 13  1  0
 15 14  1  0
 16 15  2  0
 17 16  1  0
 18 17  1  0
 19 17  2  0
 22 18  1  0
 20 19  1  0
 22 21  1  0
 25 21  1  0
 23 22  1  0
 24 23  1  0
 25 24  1  0
M  CHG  2   9   1  20  -1
A    1
C1
A    2
C2
A    3
C3
A    4
C4
A    5
C5
A    6
C6
A    7
C7
A    8
N1
A    9
N2
A   10
N3
A   11
N4
A   12
C8
A   13
C1'
A   14
C2'
A   15
C3'
A   16
C4'
A   17
C5'
A   18
O5'
A   19
C6'
A   20
O6'
A   21
C1B
A   22
C2B
A   23
C3B
A   24
C4B
A   25
C5B
M  END
>  <Id>  (116) 
1O2I_655_A_246

>  <ChainId>  (116) 
A

>  <AsymId>  (116) 
D

>  <SeqNum>  (116) 
246

>  <Name>  (116) 
2-{5-[AMINO(IMINIO)METHYL]-1H-BENZIMIDAZOL-2-YL}-6-(CYCLOPENTYLOXY)BENZENOLATE

>  <SystematicName>  (116) 
2-[5-(amino-azaniumylidene-methyl)-1H-benzimidazol-2-yl]-6-cyclopentyloxy-phenolate

>  <Synonyms>  (116) 
CRA_10655

>  <Type>  (116) 
NON-POLYMER

>  <Formula>  (116) 
C19 H20 N4 O2

>  <ObservedFormula>  (116) 
C19 N4 O2

>  <MolecularWeight>  (116) 
336.388

>  <ModifiedDate>  (116) 
2011-06-04

>  <Parent>  (116) 


>  <OneLetterCode>  (116) 


>  <SubcomponentList>  (116) 


>  <AmbiguousFlag>  (116) 
N

>  <InsertionCode>  (116) 


>  <InstanceId>  (116) 
1O2I_655_A_246

>  <ChemCompId>  (116) 
655

>  <PdbId>  (116) 
1O2I

>  <ResidueNumber>  (116) 
246

>  <InChI>  (116) 
InChI=1S/C19H20N4O2/c20-18(21)11-8-9-14-15(10-11)23-19(22-14)13-6-3-7-16(17(13)24)25-12-4-1-2-5-12/h3,6-10,12,24H,1-2,4-5H2,(H3,20,21)(H,22,23)

>  <InChIKey>  (116) 
WCFWDBPDMBXMTQ-UHFFFAOYSA-N

>  <SMILES>  (116) 
c1cc(c(c(c1)OC2CCCC2)[O-])c3[nH]c4ccc(cc4n3)C(=[NH2+])N

>  <MissingHeavyAtoms>  (116) 
0

>  <Model>  (116) 
1

>  <AltIds>  (116) 


>  <pKI>  (116) 
7.28

>  <ChemblID>  (116) 
-

>  <standardized_canonical_smiles>  (116) 
NC(=[NH2+])c1ccc2[nH]c(-c3cccc(OC4CCCC4)c3[O-])nc2c1

$$$$
1O3L_678_A_246
     RDKit          3D

 24 26  0  0  0  0  0  0  0  0999 V2000
   43.9660   -2.9640   26.0870 C   0  0  0  0  0  0  0  0  0  0  0  0
   44.2610   -1.5780   26.1950 C   0  0  0  0  0  0  0  0  0  0  0  0
   44.1330   -0.8650   27.3850 C   0  0  0  0  0  0  0  0  0  0  0  0
   43.7140   -1.5620   28.4750 C   0  0  0  0  0  0  0  0  0  0  0  0
   43.4090   -2.8710   28.4590 C   0  0  0  0  0  0  0  0  0  0  0  0
   43.5240   -3.6050   27.2790 C   0  0  0  0  0  0  0  0  0  0  0  0
   44.1170   -3.6620   24.8510 C   0  0  0  0  0  0  0  0  0  0  0  0
   43.8230   -4.9430   24.7440 N   0  0  0  0  0  0  0  0  0  0  0  0
   44.5530   -3.0480   23.7710 N   0  0  0  0  0  0  0  0  0  0  0  0
   43.5030   -1.1210   29.7020 N   0  0  0  0  0  0  0  0  0  0  0  0
   43.0240   -3.1900   29.7020 C   0  0  0  0  0  0  0  0  0  0  0  0
   43.0730   -2.0810   30.5250 C   0  0  0  0  0  0  0  0  0  0  0  0
   42.9180   -1.9290   31.9390 C   0  0  0  0  0  0  0  0  0  0  0  0
   42.6480   -3.0430   32.7920 C   0  0  0  0  0  0  0  0  0  0  0  0
   42.4840   -2.9410   34.1950 C   0  0  0  0  0  0  0  0  0  0  0  0
   42.1740   -4.2470   34.9990 C   0  0  0  0  0  0  0  0  0  0  0  0
   42.0880   -4.0950   36.5220 C   0  0  0  0  0  0  0  0  0  0  0  0
   41.0700   -3.6060   36.9600 O   0  0  0  0  0  0  0  0  0  0  0  0
   43.0300   -4.4660   37.1970 O   0  0  0  0  0  0  0  0  0  0  0  0
   42.6000   -1.6820   34.7680 C   0  0  0  0  0  0  0  0  0  0  0  0
   42.8580   -0.6130   33.9450 C   0  0  0  0  0  0  0  0  0  0  0  0
   43.0150   -0.7100   32.5740 C   0  0  0  0  0  0  0  0  0  0  0  0
   43.2450    0.4340   31.8500 O   0  0  0  0  0  0  0  0  0  0  0  0
   43.0180    1.1490   34.7080 Br  0  0  0  0  0  0  0  0  0  0  0  0
  2  1  2  0
  6  1  1  0
  7  1  1  0
  3  2  1  0
  4  3  2  0
  5  4  1  0
 10  4  1  0
  6  5  2  0
 11  5  1  0
  8  7  1  0
  9  7  2  0
 12 10  1  0
 12 11  2  0
 13 12  1  0
 14 13  2  0
 22 13  1  0
 15 14  1  0
 16 15  1  0
 20 15  2  0
 17 16  1  0
 18 17  2  0
 19 17  1  0
 21 20  1  0
 22 21  2  0
 24 21  1  0
 23 22  1  0
M  CHG  3   9   1  19  -1  23  -1
A    1
C1
A    2
C2
A    3
C3
A    4
C4
A    5
C5
A    6
C6
A    7
C7
A    8
N1
A    9
N2
A   10
N3
A   11
CN4
A   12
C8
A   13
C1'
A   14
C2'
A   15
C3'
A   16
CV'
A   17
CW'
A   18
OX'
A   19
OY'
A   20
C4'
A   21
C5'
A   22
C6'
A   23
O6'
A   24
BR5'
M  END
>  <Id>  (117) 
1O3L_678_A_246

>  <ChainId>  (117) 
A

>  <AsymId>  (117) 
D

>  <SeqNum>  (117) 
246

>  <Name>  (117) 
(3-{5-[AMINO(IMINIO)METHYL]-1H-INDOL-2-YL}-5-BROMO-4-OXIDOPHENYL)ACETATE

>  <SystematicName>  (117) 
2-[3-[5-(amino-azaniumylidene-methyl)-1H-indol-2-yl]-5-bromo-4-oxido-phenyl]ethanoate

>  <Synonyms>  (117) 
CRA_9678

>  <Type>  (117) 
NON-POLYMER

>  <Formula>  (117) 
C17 H13 Br N3 O3

>  <ObservedFormula>  (117) 
Br C17 N3 O3

>  <MolecularWeight>  (117) 
387.207

>  <ModifiedDate>  (117) 
2011-06-04

>  <Parent>  (117) 


>  <OneLetterCode>  (117) 


>  <SubcomponentList>  (117) 


>  <AmbiguousFlag>  (117) 
N

>  <InsertionCode>  (117) 


>  <InstanceId>  (117) 
1O3L_678_A_246

>  <ChemCompId>  (117) 
678

>  <PdbId>  (117) 
1O3L

>  <ResidueNumber>  (117) 
246

>  <InChI>  (117) 
InChI=1S/C17H14BrN3O3/c18-12-4-8(5-15(22)23)3-11(16(12)24)14-7-10-6-9(17(19)20)1-2-13(10)21-14/h1-4,6-7,21,24H,5H2,(H3,19,20)(H,22,23)/p-1

>  <InChIKey>  (117) 
VIZNZQTZRMTYPZ-UHFFFAOYSA-M

>  <SMILES>  (117) 
c1cc2c(cc1C(=[NH2+])N)cc([nH]2)c3cc(cc(c3[O-])Br)CC(=O)[O-]

>  <MissingHeavyAtoms>  (117) 
0

>  <Model>  (117) 
1

>  <AltIds>  (117) 


>  <pKI>  (117) 
6.54

>  <ChemblID>  (117) 
-

>  <standardized_canonical_smiles>  (117) 
NC(=[NH2+])c1ccc2[nH]c(-c3cc(CC(=O)[O-])cc(Br)c3[O-])cc2c1

$$$$
2OTV_SO4_A_1201
     RDKit          3D

  5  4  0  0  0  0  0  0  0  0999 V2000
   -1.0550  -11.5330  -10.9100 S   0  0  0  0  0  0  0  0  0  0  0  0
   -1.9600  -10.4310  -10.6410 O   0  0  0  0  0  0  0  0  0  0  0  0
   -0.0970  -11.6740   -9.8100 O   0  0  0  0  0  0  0  0  0  0  0  0
   -1.8010  -12.7820  -11.0340 O   0  0  0  0  0  0  0  0  0  0  0  0
   -0.3070  -11.2620  -12.1340 O   0  0  0  0  0  0  0  0  0  0  0  0
  2  1  2  0
  3  1  2  0
  4  1  1  0
  5  1  1  0
M  CHG  2   4  -1   5  -1
A    1
S
A    2
O1
A    3
O2
A    4
O3
A    5
O4
M  END
>  <Id>  (118) 
2OTV_SO4_A_1201

>  <ChainId>  (118) 
A

>  <AsymId>  (118) 
C

>  <SeqNum>  (118) 
1201

>  <Name>  (118) 
SULFATE ION

>  <SystematicName>  (118) 
sulfate

>  <Synonyms>  (118) 


>  <Type>  (118) 
NON-POLYMER

>  <Formula>  (118) 
O4 S

>  <ObservedFormula>  (118) 
S O4

>  <MolecularWeight>  (118) 
96.063

>  <ModifiedDate>  (118) 
2011-06-04

>  <Parent>  (118) 


>  <OneLetterCode>  (118) 


>  <SubcomponentList>  (118) 


>  <AmbiguousFlag>  (118) 
N

>  <InsertionCode>  (118) 


>  <InstanceId>  (118) 
2OTV_SO4_A_1201

>  <ChemCompId>  (118) 
SO4

>  <PdbId>  (118) 
2OTV

>  <ResidueNumber>  (118) 
1201

>  <InChI>  (118) 
InChI=1S/H2O4S/c1-5(2,3)4/h(H2,1,2,3,4)/p-2

>  <InChIKey>  (118) 
QAOWNCQODCNURD-UHFFFAOYSA-L

>  <SMILES>  (118) 
[O-]S(=O)(=O)[O-]

>  <MissingHeavyAtoms>  (118) 
0

>  <Model>  (118) 
1

>  <AltIds>  (118) 


>  <pKI>  (118) 
4.8

>  <ChemblID>  (118) 
-

>  <standardized_canonical_smiles>  (118) 
NC(=[NH2+])c1ccc2[nH]c(-c3ccc[nH]c3=O)nc2c1

$$$$
1GHZ_120_A_246
     RDKit          3D

 19 21  0  0  0  0  0  0  0  0999 V2000
   45.5210   19.3220   52.9710 C   0  0  0  0  0  0  0  0  0  0  0  0
   44.9600   18.9450   51.7100 C   0  0  0  0  0  0  0  0  0  0  0  0
   44.6630   19.8760   50.7100 C   0  0  0  0  0  0  0  0  0  0  0  0
   44.9430   21.1740   51.0030 C   0  0  0  0  0  0  0  0  0  0  0  0
   45.4780   21.5930   52.1780 C   0  0  0  0  0  0  0  0  0  0  0  0
   45.7850   20.7080   53.2020 C   0  0  0  0  0  0  0  0  0  0  0  0
   45.8050   18.3410   53.9180 C   0  0  0  0  0  0  0  0  0  0  0  0
   46.5150   18.6530   54.9580 N   0  0  0  0  0  0  0  0  0  0  0  0
   45.3730   17.1190   53.7560 N   0  0  0  0  0  0  0  0  0  0  0  0
   44.7760   22.2190   50.2680 N   0  0  0  0  0  0  0  0  0  0  0  0
   45.6450   22.9130   52.2160 N   0  0  0  0  0  0  0  0  0  0  0  0
   45.1820   23.2150   50.9930 C   0  0  0  0  0  0  0  0  0  0  0  0
   45.2120   24.5160   50.4390 C   0  0  0  0  0  0  0  0  0  0  0  0
   45.9180   25.5190   51.0800 C   0  0  0  0  0  0  0  0  0  0  0  0
   45.9540   26.7840   50.5520 C   0  0  0  0  0  0  0  0  0  0  0  0
   45.3000   27.0960   49.3770 C   0  0  0  0  0  0  0  0  0  0  0  0
   44.6330   26.1090   48.7910 N   0  0  0  0  0  0  0  0  0  0  0  0
   44.5300   24.8470   49.2100 C   0  0  0  0  0  0  0  0  0  0  0  0
   43.8810   24.0230   48.5860 O   0  0  0  0  0  0  0  0  0  0  0  0
  2  1  2  0
  6  1  1  0
  7  1  1  0
  3  2  1  0
  4  3  2  0
  5  4  1  0
 10  4  1  0
  6  5  2  0
 11  5  1  0
  8  7  1  0
  9  7  2  0
 12 10  1  0
 12 11  2  0
 13 12  1  0
 14 13  2  0
 18 13  1  0
 15 14  1  0
 16 15  2  0
 17 16  1  0
 18 17  1  0
 19 18  2  0
M  CHG  1   9   1
A    1
C1
A    2
C2
A    3
C3
A    4
C4
A    5
C5
A    6
C6
A    7
C7
A    8
N1
A    9
N2
A   10
N3
A   11
N4
A   12
C8
A   13
C1'
A   14
C2'
A   15
C3'
A   16
C4'
A   17
N5'
A   18
C6'
A   19
O6'
M  END
>  <Id>  (119) 
1GHZ_120_A_246

>  <ChainId>  (119) 
A

>  <AsymId>  (119) 
G

>  <SeqNum>  (119) 
246

>  <Name>  (119) 
2-(2-OXO-1,2-DIHYDRO-PYRIDIN-3-YL)-1H-BENZOIMIDAZOLE-5-CARBOXAMIDINE

>  <SystematicName>  (119) 
[amino-[2-(2-oxo-1H-pyridin-3-yl)-1H-benzimidazol-5-yl]methylidene]azanium

>  <Synonyms>  (119) 


>  <Type>  (119) 
NON-POLYMER

>  <Formula>  (119) 
C13 H12 N5 O

>  <ObservedFormula>  (119) 
C13 N5 O

>  <MolecularWeight>  (119) 
254.267

>  <ModifiedDate>  (119) 
2011-06-04

>  <Parent>  (119) 


>  <OneLetterCode>  (119) 


>  <SubcomponentList>  (119) 


>  <AmbiguousFlag>  (119) 
N

>  <InsertionCode>  (119) 


>  <InstanceId>  (119) 
1GHZ_120_A_246

>  <ChemCompId>  (119) 
120

>  <PdbId>  (119) 
1GHZ

>  <ResidueNumber>  (119) 
246

>  <InChI>  (119) 
InChI=1S/C13H11N5O/c14-11(15)7-3-4-9-10(6-7)18-12(17-9)8-2-1-5-16-13(8)19/h1-6H,(H3,14,15)(H,16,19)(H,17,18)/p+1

>  <InChIKey>  (119) 
PUOKYJMONGPAIM-UHFFFAOYSA-O

>  <SMILES>  (119) 
c1cc2c(cc1C(=[NH2+])N)nc([nH]2)C3=CC=CNC3=O

>  <MissingHeavyAtoms>  (119) 
0

>  <Model>  (119) 
1

>  <AltIds>  (119) 


>  <pKI>  (119) 
4.8

>  <ChemblID>  (119) 
-

>  <standardized_canonical_smiles>  (119) 
NC(=[NH2+])c1ccc2[nH]c(-c3ccc[nH]c3=O)nc2c1

$$$$
1O35_802_A_246
     RDKit          3D

 20 22  0  0  0  0  0  0  0  0999 V2000
   44.3020   -2.8610   26.6630 C   0  0  0  0  0  0  0  0  0  0  0  0
   44.7860   -1.5240   26.6370 C   0  0  0  0  0  0  0  0  0  0  0  0
   44.7880   -0.7410   27.7960 C   0  0  0  0  0  0  0  0  0  0  0  0
   44.3120   -1.2930   28.9670 C   0  0  0  0  0  0  0  0  0  0  0  0
   43.7690   -2.5260   29.0090 C   0  0  0  0  0  0  0  0  0  0  0  0
   43.7580   -3.3510   27.8630 C   0  0  0  0  0  0  0  0  0  0  0  0
   44.3110   -3.6160   25.4790 C   0  0  0  0  0  0  0  0  0  0  0  0
   44.1310   -4.9040   25.5110 N   0  0  0  0  0  0  0  0  0  0  0  0
   44.5530   -3.0780   24.3050 N   0  0  0  0  0  0  0  0  0  0  0  0
   44.1810   -0.7830   30.1530 N   0  0  0  0  0  0  0  0  0  0  0  0
   43.3780   -2.8400   30.2310 N   0  0  0  0  0  0  0  0  0  0  0  0
   43.6250   -1.7090   30.8870 C   0  0  0  0  0  0  0  0  0  0  0  0
   43.3440   -1.5260   32.2390 C   0  0  0  0  0  0  0  0  0  0  0  0
   42.9840   -2.5940   33.0670 C   0  0  0  0  0  0  0  0  0  0  0  0
   42.6920   -2.3630   34.4070 C   0  0  0  0  0  0  0  0  0  0  0  0
   42.3250   -3.3910   35.2510 F   0  0  0  0  0  0  0  0  0  0  0  0
   42.7420   -1.0770   34.9140 C   0  0  0  0  0  0  0  0  0  0  0  0
   43.0700   -0.0010   34.0860 C   0  0  0  0  0  0  0  0  0  0  0  0
   43.3780   -0.2310   32.7640 C   0  0  0  0  0  0  0  0  0  0  0  0
   43.7070    0.8320   31.9570 O   0  0  0  0  0  0  0  0  0  0  0  0
  2  1  2  0
  6  1  1  0
  7  1  1  0
  3  2  1  0
  4  3  2  0
  5  4  1  0
 10  4  1  0
  6  5  2  0
 11  5  1  0
  8  7  1  0
  9  7  2  0
 12 10  1  0
 12 11  2  0
 13 12  1  0
 14 13  2  0
 19 13  1  0
 15 14  1  0
 16 15  1  0
 17 15  2  0
 18 17  1  0
 19 18  2  0
 20 19  1  0
M  CHG  2   9   1  20  -1
A    1
C1
A    2
C2
A    3
C3
A    4
C4
A    5
C5
A    6
C6
A    7
C7
A    8
N1
A    9
N2
A   10
N3
A   11
N4
A   12
C8
A   13
C1'
A   14
C2'
A   15
C3'
A   16
F3'
A   17
C4'
A   18
C5'
A   19
C6'
A   20
O6'
M  END
>  <Id>  (120) 
1O35_802_A_246

>  <ChainId>  (120) 
A

>  <AsymId>  (120) 
D

>  <SeqNum>  (120) 
246

>  <Name>  (120) 
2-{5-[AMINO(IMINIO)METHYL]-1H-BENZIMIDAZOL-2-YL}-4-FLUOROBENZENOLATE

>  <SystematicName>  (120) 
2-[5-(amino-azaniumylidene-methyl)-1H-benzimidazol-2-yl]-4-fluoro-phenolate

>  <Synonyms>  (120) 
CRA_1802

>  <Type>  (120) 
NON-POLYMER

>  <Formula>  (120) 
C14 H11 F N4 O

>  <ObservedFormula>  (120) 
C14 F N4 O

>  <MolecularWeight>  (120) 
270.262

>  <ModifiedDate>  (120) 
2011-06-04

>  <Parent>  (120) 


>  <OneLetterCode>  (120) 


>  <SubcomponentList>  (120) 


>  <AmbiguousFlag>  (120) 
N

>  <InsertionCode>  (120) 


>  <InstanceId>  (120) 
1O35_802_A_246

>  <ChemCompId>  (120) 
802

>  <PdbId>  (120) 
1O35

>  <ResidueNumber>  (120) 
246

>  <InChI>  (120) 
InChI=1S/C14H11FN4O/c15-8-2-4-12(20)9(6-8)14-18-10-3-1-7(13(16)17)5-11(10)19-14/h1-6,20H,(H3,16,17)(H,18,19)

>  <InChIKey>  (120) 
JOGOACSSLJEREC-UHFFFAOYSA-N

>  <SMILES>  (120) 
c1cc2c(cc1C(=[NH2+])N)nc([nH]2)c3cc(ccc3[O-])F

>  <MissingHeavyAtoms>  (120) 
0

>  <Model>  (120) 
1

>  <AltIds>  (120) 


>  <pKI>  (120) 
5.0

>  <ChemblID>  (120) 
-

>  <standardized_canonical_smiles>  (120) 
NC(=[NH2+])c1ccc2[nH]c(-c3cc(F)ccc3[O-])nc2c1

$$$$
1SBW_SO4_A_802
     RDKit          3D

  5  4  0  0  0  0  0  0  0  0999 V2000
   45.1040   11.2810   71.2430 S   0  0  0  0  0  0  0  0  0  0  0  0
   45.0060   11.1830   72.8190 O   0  0  0  0  0  0  0  0  0  0  0  0
   43.7950   11.9670   70.6900 O   0  0  0  0  0  0  0  0  0  0  0  0
   45.2150    9.8370   70.6280 O   0  0  0  0  0  0  0  0  0  0  0  0
   46.3730   12.1460   70.8620 O   0  0  0  0  0  0  0  0  0  0  0  0
  2  1  2  0
  3  1  2  0
  4  1  1  0
  5  1  1  0
M  CHG  2   4  -1   5  -1
A    1
S
A    2
O1
A    3
O2
A    4
O3
A    5
O4
M  END
>  <Id>  (121) 
1SBW_SO4_A_802

>  <ChainId>  (121) 
A

>  <AsymId>  (121) 
D

>  <SeqNum>  (121) 
802

>  <Name>  (121) 
SULFATE ION

>  <SystematicName>  (121) 
sulfate

>  <Synonyms>  (121) 


>  <Type>  (121) 
NON-POLYMER

>  <Formula>  (121) 
O4 S

>  <ObservedFormula>  (121) 
S O4

>  <MolecularWeight>  (121) 
96.063

>  <ModifiedDate>  (121) 
2011-06-04

>  <Parent>  (121) 


>  <OneLetterCode>  (121) 


>  <SubcomponentList>  (121) 


>  <AmbiguousFlag>  (121) 
N

>  <InsertionCode>  (121) 


>  <InstanceId>  (121) 
1SBW_SO4_A_802

>  <ChemCompId>  (121) 
SO4

>  <PdbId>  (121) 
1SBW

>  <ResidueNumber>  (121) 
802

>  <InChI>  (121) 
InChI=1S/H2O4S/c1-5(2,3)4/h(H2,1,2,3,4)/p-2

>  <InChIKey>  (121) 
QAOWNCQODCNURD-UHFFFAOYSA-L

>  <SMILES>  (121) 
[O-]S(=O)(=O)[O-]

>  <MissingHeavyAtoms>  (121) 
0

>  <Model>  (121) 
1

>  <AltIds>  (121) 


>  <pKI>  (121) 
5.0

>  <ChemblID>  (121) 
-

>  <standardized_canonical_smiles>  (121) 
NC(=[NH2+])c1ccc2[nH]c(-c3cc(F)ccc3[O-])nc2c1

$$$$
2ZQ1_GOL_A_801
     RDKit          3D

  6  5  0  0  0  0  0  0  0  0999 V2000
  -21.5840    8.8880   -4.7710 C   0  0  0  0  0  0  0  0  0  0  0  0
  -22.5890    9.3770   -3.8780 O   0  0  0  0  0  0  0  0  0  0  0  0
  -20.2220    9.5290   -4.4380 C   0  0  0  0  0  0  0  0  0  0  0  0
  -20.2670   10.1670   -3.1570 O   0  0  0  0  0  0  0  0  0  0  0  0
  -19.6710   10.4380   -5.5550 C   0  0  0  0  0  0  0  0  0  0  0  0
  -19.6950    9.7620   -6.8360 O   0  0  0  0  0  0  0  0  0  0  0  0
  2  1  1  0
  3  1  1  0
  4  3  1  0
  5  3  1  0
  6  5  1  0
A    1
C1
A    2
O1
A    3
C2
A    4
O2
A    5
C3
A    6
O3
M  END
>  <Id>  (122) 
2ZQ1_GOL_A_801

>  <ChainId>  (122) 
A

>  <AsymId>  (122) 
E

>  <SeqNum>  (122) 
801

>  <Name>  (122) 
GLYCEROL

>  <SystematicName>  (122) 
propane-1,2,3-triol

>  <Synonyms>  (122) 
GLYCERIN; PROPANE-1,2,3-TRIOL

>  <Type>  (122) 
NON-POLYMER

>  <Formula>  (122) 
C3 H8 O3

>  <ObservedFormula>  (122) 
C3 O3

>  <MolecularWeight>  (122) 
92.094

>  <ModifiedDate>  (122) 
2011-06-04

>  <Parent>  (122) 


>  <OneLetterCode>  (122) 


>  <SubcomponentList>  (122) 


>  <AmbiguousFlag>  (122) 
N

>  <InsertionCode>  (122) 


>  <InstanceId>  (122) 
2ZQ1_GOL_A_801

>  <ChemCompId>  (122) 
GOL

>  <PdbId>  (122) 
2ZQ1

>  <ResidueNumber>  (122) 
801

>  <InChI>  (122) 
InChI=1S/C3H8O3/c4-1-3(6)2-5/h3-6H,1-2H2

>  <InChIKey>  (122) 
PEDCQBHIVMGVHV-UHFFFAOYSA-N

>  <SMILES>  (122) 
C(C(CO)O)O

>  <MissingHeavyAtoms>  (122) 
0

>  <Model>  (122) 
1

>  <AltIds>  (122) 


>  <pKI>  (122) 
5.74

>  <ChemblID>  (122) 
-

>  <standardized_canonical_smiles>  (122) 
NC(=[NH2+])c1ccc2[nH]c(-c3ncccc3[O-])nc2c1

$$$$
1O32_801_A_246
     RDKit          3D

 19 21  0  0  0  0  0  0  0  0999 V2000
   44.2810   -3.1230   26.0620 C   0  0  0  0  0  0  0  0  0  0  0  0
   44.6630   -1.7910   26.3490 C   0  0  0  0  0  0  0  0  0  0  0  0
   44.5530   -1.2790   27.6620 C   0  0  0  0  0  0  0  0  0  0  0  0
   44.0710   -2.1180   28.6360 C   0  0  0  0  0  0  0  0  0  0  0  0
   43.6930   -3.3850   28.3730 C   0  0  0  0  0  0  0  0  0  0  0  0
   43.7820   -3.9160   27.1040 C   0  0  0  0  0  0  0  0  0  0  0  0
   44.3910   -3.6670   24.7720 C   0  0  0  0  0  0  0  0  0  0  0  0
   44.1110   -4.9340   24.5680 N   0  0  0  0  0  0  0  0  0  0  0  0
   44.7790   -2.9010   23.7850 N   0  0  0  0  0  0  0  0  0  0  0  0
   43.8660   -1.9530   29.8870 N   0  0  0  0  0  0  0  0  0  0  0  0
   43.2570   -4.0300   29.4240 N   0  0  0  0  0  0  0  0  0  0  0  0
   43.3970   -3.0840   30.3400 C   0  0  0  0  0  0  0  0  0  0  0  0
   43.1300   -3.2320   31.7120 C   0  0  0  0  0  0  0  0  0  0  0  0
   43.1280   -2.1250   32.4520 N   0  0  0  0  0  0  0  0  0  0  0  0
   42.8990   -2.1360   33.7530 C   0  0  0  0  0  0  0  0  0  0  0  0
   42.6430   -3.3320   34.4180 C   0  0  0  0  0  0  0  0  0  0  0  0
   42.6360   -4.5160   33.6920 C   0  0  0  0  0  0  0  0  0  0  0  0
   42.8780   -4.4920   32.3220 C   0  0  0  0  0  0  0  0  0  0  0  0
   42.8550   -5.7200   31.6610 O   0  0  0  0  0  0  0  0  0  0  0  0
  2  1  2  0
  6  1  1  0
  7  1  1  0
  3  2  1  0
  4  3  2  0
  5  4  1  0
 10  4  1  0
  6  5  2  0
 11  5  1  0
  8  7  1  0
  9  7  2  0
 12 10  1  0
 12 11  2  0
 13 12  1  0
 14 13  2  0
 18 13  1  0
 15 14  1  0
 16 15  2  0
 17 16  1  0
 18 17  2  0
 19 18  1  0
M  CHG  2   9   1  19  -1
A    1
C1
A    2
C2
A    3
C3
A    4
C4
A    5
C5
A    6
C6
A    7
C7
A    8
N1
A    9
N2
A   10
N3
A   11
N4
A   12
C8
A   13
C1'
A   14
N2'
A   15
C3'
A   16
C4'
A   17
C5'
A   18
C6'
A   19
O6'
M  END
>  <Id>  (123) 
1O32_801_A_246

>  <ChainId>  (123) 
A

>  <AsymId>  (123) 
C

>  <SeqNum>  (123) 
246

>  <Name>  (123) 
2-{5-[AMINO(IMINIO)METHYL]-1H-BENZIMIDAZOL-2-YL}PYRIDIN-3-OLATE

>  <SystematicName>  (123) 
2-[5-(amino-azaniumylidene-methyl)-1H-benzimidazol-2-yl]pyridin-3-olate

>  <Synonyms>  (123) 
CRA_1801

>  <Type>  (123) 
NON-POLYMER

>  <Formula>  (123) 
C13 H11 N5 O

>  <ObservedFormula>  (123) 
C13 N5 O

>  <MolecularWeight>  (123) 
253.259

>  <ModifiedDate>  (123) 
2011-06-04

>  <Parent>  (123) 


>  <OneLetterCode>  (123) 


>  <SubcomponentList>  (123) 


>  <AmbiguousFlag>  (123) 
N

>  <InsertionCode>  (123) 


>  <InstanceId>  (123) 
1O32_801_A_246

>  <ChemCompId>  (123) 
801

>  <PdbId>  (123) 
1O32

>  <ResidueNumber>  (123) 
246

>  <InChI>  (123) 
InChI=1S/C13H11N5O/c14-12(15)7-3-4-8-9(6-7)18-13(17-8)11-10(19)2-1-5-16-11/h1-6,19H,(H3,14,15)(H,17,18)

>  <InChIKey>  (123) 
FQCDQFDJHSXQKY-UHFFFAOYSA-N

>  <SMILES>  (123) 
c1cc(c(nc1)c2[nH]c3ccc(cc3n2)C(=[NH2+])N)[O-]

>  <MissingHeavyAtoms>  (123) 
0

>  <Model>  (123) 
1

>  <AltIds>  (123) 


>  <pKI>  (123) 
5.74

>  <ChemblID>  (123) 
-

>  <standardized_canonical_smiles>  (123) 
NC(=[NH2+])c1ccc2[nH]c(-c3ncccc3[O-])nc2c1

$$$$
2ZDK_DMS_A_801
     RDKit          3D

  4  3  0  0  0  0  0  0  0  0999 V2000
  -28.9440  -18.1290   13.2690 S   0  0  0  0  0  0  0  0  0  0  0  0
  -30.0690  -17.7230   14.1130 O   0  0  0  0  0  0  0  0  0  0  0  0
  -29.4680  -19.8170   12.7860 C   0  0  0  0  0  0  0  0  0  0  0  0
  -27.6250  -18.7430   14.3610 C   0  0  0  0  0  0  0  0  0  0  0  0
  2  1  2  0
  3  1  1  0
  4  1  1  0
A    1
S
A    2
O
A    3
C1
A    4
C2
M  END
>  <Id>  (124) 
2ZDK_DMS_A_801

>  <ChainId>  (124) 
A

>  <AsymId>  (124) 
E

>  <SeqNum>  (124) 
801

>  <Name>  (124) 
DIMETHYL SULFOXIDE

>  <SystematicName>  (124) 
methylsulfinylmethane

>  <Synonyms>  (124) 


>  <Type>  (124) 
NON-POLYMER

>  <Formula>  (124) 
C2 H6 O S

>  <ObservedFormula>  (124) 
S C2 O

>  <MolecularWeight>  (124) 
78.133

>  <ModifiedDate>  (124) 
2011-06-04

>  <Parent>  (124) 


>  <OneLetterCode>  (124) 


>  <SubcomponentList>  (124) 


>  <AmbiguousFlag>  (124) 
N

>  <InsertionCode>  (124) 


>  <InstanceId>  (124) 
2ZDK_DMS_A_801

>  <ChemCompId>  (124) 
DMS

>  <PdbId>  (124) 
2ZDK

>  <ResidueNumber>  (124) 
801

>  <InChI>  (124) 
InChI=1S/C2H6OS/c1-4(2)3/h1-2H3

>  <InChIKey>  (124) 
IAZDPXIOMUYVGZ-UHFFFAOYSA-N

>  <SMILES>  (124) 
CS(=O)C

>  <MissingHeavyAtoms>  (124) 
0

>  <Model>  (124) 
1

>  <AltIds>  (124) 


>  <pKI>  (124) 
5.74

>  <ChemblID>  (124) 
-

>  <standardized_canonical_smiles>  (124) 
NC(=[NH2+])c1ccc2[nH]c(-c3ncccc3[O-])nc2c1

$$$$
2ZFS_GOL_A_801
     RDKit          3D

  6  5  0  0  0  0  0  0  0  0999 V2000
   15.4490   -4.5540  -12.6010 C   0  0  0  0  0  0  0  0  0  0  0  0
   15.8190   -5.8380  -13.1780 O   0  0  0  0  0  0  0  0  0  0  0  0
   16.5570   -3.5660  -13.0710 C   0  0  0  0  0  0  0  0  0  0  0  0
   16.3890   -3.2890  -14.4800 O   0  0  0  0  0  0  0  0  0  0  0  0
   16.5210   -2.2380  -12.2800 C   0  0  0  0  0  0  0  0  0  0  0  0
   17.6330   -1.4030  -12.7160 O   0  0  0  0  0  0  0  0  0  0  0  0
  2  1  1  0
  3  1  1  0
  4  3  1  0
  5  3  1  0
  6  5  1  0
A    1
C1
A    2
O1
A    3
C2
A    4
O2
A    5
C3
A    6
O3
M  END
>  <Id>  (125) 
2ZFS_GOL_A_801

>  <ChainId>  (125) 
A

>  <AsymId>  (125) 
E

>  <SeqNum>  (125) 
801

>  <Name>  (125) 
GLYCEROL

>  <SystematicName>  (125) 
propane-1,2,3-triol

>  <Synonyms>  (125) 
GLYCERIN; PROPANE-1,2,3-TRIOL

>  <Type>  (125) 
NON-POLYMER

>  <Formula>  (125) 
C3 H8 O3

>  <ObservedFormula>  (125) 
C3 O3

>  <MolecularWeight>  (125) 
92.094

>  <ModifiedDate>  (125) 
2011-06-04

>  <Parent>  (125) 


>  <OneLetterCode>  (125) 


>  <SubcomponentList>  (125) 


>  <AmbiguousFlag>  (125) 
N

>  <InsertionCode>  (125) 


>  <InstanceId>  (125) 
2ZFS_GOL_A_801

>  <ChemCompId>  (125) 
GOL

>  <PdbId>  (125) 
2ZFS

>  <ResidueNumber>  (125) 
801

>  <InChI>  (125) 
InChI=1S/C3H8O3/c4-1-3(6)2-5/h3-6H,1-2H2

>  <InChIKey>  (125) 
PEDCQBHIVMGVHV-UHFFFAOYSA-N

>  <SMILES>  (125) 
C(C(CO)O)O

>  <MissingHeavyAtoms>  (125) 
0

>  <Model>  (125) 
1

>  <AltIds>  (125) 


>  <pKI>  (125) 
5.74

>  <ChemblID>  (125) 
-

>  <standardized_canonical_smiles>  (125) 
NC(=[NH2+])c1ccc2[nH]c(-c3ncccc3[O-])nc2c1

$$$$
1O34_801_A_246
     RDKit          3D

 19 21  0  0  0  0  0  0  0  0999 V2000
   43.9810   -3.0230   26.2160 C   0  0  0  0  0  0  0  0  0  0  0  0
   44.5110   -1.7140   26.2640 C   0  0  0  0  0  0  0  0  0  0  0  0
   44.4860   -0.9620   27.4130 C   0  0  0  0  0  0  0  0  0  0  0  0
   43.9310   -1.5300   28.5240 C   0  0  0  0  0  0  0  0  0  0  0  0
   43.3970   -2.7740   28.5200 C   0  0  0  0  0  0  0  0  0  0  0  0
   43.4050   -3.5600   27.3670 C   0  0  0  0  0  0  0  0  0  0  0  0
   44.0540   -3.7690   25.0350 C   0  0  0  0  0  0  0  0  0  0  0  0
   43.7670   -5.0590   25.0530 N   0  0  0  0  0  0  0  0  0  0  0  0
   44.4230   -3.1350   23.9350 N   0  0  0  0  0  0  0  0  0  0  0  0
   43.7780   -1.0920   29.7220 N   0  0  0  0  0  0  0  0  0  0  0  0
   42.9210   -3.1120   29.7000 N   0  0  0  0  0  0  0  0  0  0  0  0
   43.1860   -2.0210   30.3930 C   0  0  0  0  0  0  0  0  0  0  0  0
   42.9830   -1.8940   31.7530 C   0  0  0  0  0  0  0  0  0  0  0  0
   42.6900   -2.9800   32.4360 N   0  0  0  0  0  0  0  0  0  0  0  0
   42.4890   -2.9900   33.7380 C   0  0  0  0  0  0  0  0  0  0  0  0
   42.5700   -1.7940   34.4430 C   0  0  0  0  0  0  0  0  0  0  0  0
   42.8780   -0.6150   33.7670 C   0  0  0  0  0  0  0  0  0  0  0  0
   43.1010   -0.6600   32.4020 C   0  0  0  0  0  0  0  0  0  0  0  0
   43.4180    0.4850   31.7020 O   0  0  0  0  0  0  0  0  0  0  0  0
  2  1  2  0
  6  1  1  0
  7  1  1  0
  3  2  1  0
  4  3  2  0
  5  4  1  0
 10  4  1  0
  6  5  2  0
 11  5  1  0
  8  7  1  0
  9  7  2  0
 12 10  1  0
 12 11  2  0
 13 12  1  0
 14 13  2  0
 18 13  1  0
 15 14  1  0
 16 15  2  0
 17 16  1  0
 18 17  2  0
 19 18  1  0
M  CHG  2   9   1  19  -1
A    1
C1
A    2
C2
A    3
C3
A    4
C4
A    5
C5
A    6
C6
A    7
C7
A    8
N1
A    9
N2
A   10
N3
A   11
N4
A   12
C8
A   13
C1'
A   14
N2'
A   15
C3'
A   16
C4'
A   17
C5'
A   18
C6'
A   19
O6'
M  END
>  <Id>  (126) 
1O34_801_A_246

>  <ChainId>  (126) 
A

>  <AsymId>  (126) 
D

>  <SeqNum>  (126) 
246

>  <Name>  (126) 
2-{5-[AMINO(IMINIO)METHYL]-1H-BENZIMIDAZOL-2-YL}PYRIDIN-3-OLATE

>  <SystematicName>  (126) 
2-[5-(amino-azaniumylidene-methyl)-1H-benzimidazol-2-yl]pyridin-3-olate

>  <Synonyms>  (126) 
CRA_1801

>  <Type>  (126) 
NON-POLYMER

>  <Formula>  (126) 
C13 H11 N5 O

>  <ObservedFormula>  (126) 
C13 N5 O

>  <MolecularWeight>  (126) 
253.259

>  <ModifiedDate>  (126) 
2011-06-04

>  <Parent>  (126) 


>  <OneLetterCode>  (126) 


>  <SubcomponentList>  (126) 


>  <AmbiguousFlag>  (126) 
N

>  <InsertionCode>  (126) 


>  <InstanceId>  (126) 
1O34_801_A_246

>  <ChemCompId>  (126) 
801

>  <PdbId>  (126) 
1O34

>  <ResidueNumber>  (126) 
246

>  <InChI>  (126) 
InChI=1S/C13H11N5O/c14-12(15)7-3-4-8-9(6-7)18-13(17-8)11-10(19)2-1-5-16-11/h1-6,19H,(H3,14,15)(H,17,18)

>  <InChIKey>  (126) 
FQCDQFDJHSXQKY-UHFFFAOYSA-N

>  <SMILES>  (126) 
c1cc(c(nc1)c2[nH]c3ccc(cc3n2)C(=[NH2+])N)[O-]

>  <MissingHeavyAtoms>  (126) 
0

>  <Model>  (126) 
1

>  <AltIds>  (126) 


>  <pKI>  (126) 
5.74

>  <ChemblID>  (126) 
-

>  <standardized_canonical_smiles>  (126) 
NC(=[NH2+])c1ccc2[nH]c(-c3ncccc3[O-])nc2c1

$$$$
1O33_801_A_246
     RDKit          3D

 19 21  0  0  0  0  0  0  0  0999 V2000
   44.0750   -3.0370   26.3070 C   0  0  0  0  0  0  0  0  0  0  0  0
   44.5310   -1.7030   26.3610 C   0  0  0  0  0  0  0  0  0  0  0  0
   44.4530   -0.9550   27.5220 C   0  0  0  0  0  0  0  0  0  0  0  0
   43.9220   -1.5510   28.6160 C   0  0  0  0  0  0  0  0  0  0  0  0
   43.4640   -2.8170   28.6130 C   0  0  0  0  0  0  0  0  0  0  0  0
   43.5210   -3.6060   27.4640 C   0  0  0  0  0  0  0  0  0  0  0  0
   44.1930   -3.7660   25.1090 C   0  0  0  0  0  0  0  0  0  0  0  0
   43.9180   -5.0580   25.1100 N   0  0  0  0  0  0  0  0  0  0  0  0
   44.5810   -3.1240   24.0140 N   0  0  0  0  0  0  0  0  0  0  0  0
   43.7360   -1.1060   29.8050 N   0  0  0  0  0  0  0  0  0  0  0  0
   42.9940   -3.1730   29.7830 N   0  0  0  0  0  0  0  0  0  0  0  0
   43.2020   -2.0660   30.4840 C   0  0  0  0  0  0  0  0  0  0  0  0
   42.9290   -1.9290   31.8370 C   0  0  0  0  0  0  0  0  0  0  0  0
   42.6890   -3.0300   32.5210 N   0  0  0  0  0  0  0  0  0  0  0  0
   42.4260   -3.0450   33.8060 C   0  0  0  0  0  0  0  0  0  0  0  0
   42.3880   -1.8530   34.5100 C   0  0  0  0  0  0  0  0  0  0  0  0
   42.6370   -0.6510   33.8370 C   0  0  0  0  0  0  0  0  0  0  0  0
   42.9150   -0.6710   32.4720 C   0  0  0  0  0  0  0  0  0  0  0  0
   43.1600    0.5190   31.7860 O   0  0  0  0  0  0  0  0  0  0  0  0
  2  1  2  0
  6  1  1  0
  7  1  1  0
  3  2  1  0
  4  3  2  0
  5  4  1  0
 10  4  1  0
  6  5  2  0
 11  5  1  0
  8  7  1  0
  9  7  2  0
 12 10  1  0
 12 11  2  0
 13 12  1  0
 14 13  2  0
 18 13  1  0
 15 14  1  0
 16 15  2  0
 17 16  1  0
 18 17  2  0
 19 18  1  0
M  CHG  2   9   1  19  -1
A    1
C1
A    2
C2
A    3
C3
A    4
C4
A    5
C5
A    6
C6
A    7
C7
A    8
N1
A    9
N2
A   10
N3
A   11
N4
A   12
C8
A   13
C1'
A   14
N2'
A   15
C3'
A   16
C4'
A   17
C5'
A   18
C6'
A   19
O6'
M  END
>  <Id>  (127) 
1O33_801_A_246

>  <ChainId>  (127) 
A

>  <AsymId>  (127) 
D

>  <SeqNum>  (127) 
246

>  <Name>  (127) 
2-{5-[AMINO(IMINIO)METHYL]-1H-BENZIMIDAZOL-2-YL}PYRIDIN-3-OLATE

>  <SystematicName>  (127) 
2-[5-(amino-azaniumylidene-methyl)-1H-benzimidazol-2-yl]pyridin-3-olate

>  <Synonyms>  (127) 
CRA_1801

>  <Type>  (127) 
NON-POLYMER

>  <Formula>  (127) 
C13 H11 N5 O

>  <ObservedFormula>  (127) 
C13 N5 O

>  <MolecularWeight>  (127) 
253.259

>  <ModifiedDate>  (127) 
2011-06-04

>  <Parent>  (127) 


>  <OneLetterCode>  (127) 


>  <SubcomponentList>  (127) 


>  <AmbiguousFlag>  (127) 
N

>  <InsertionCode>  (127) 


>  <InstanceId>  (127) 
1O33_801_A_246

>  <ChemCompId>  (127) 
801

>  <PdbId>  (127) 
1O33

>  <ResidueNumber>  (127) 
246

>  <InChI>  (127) 
InChI=1S/C13H11N5O/c14-12(15)7-3-4-8-9(6-7)18-13(17-8)11-10(19)2-1-5-16-11/h1-6,19H,(H3,14,15)(H,17,18)

>  <InChIKey>  (127) 
FQCDQFDJHSXQKY-UHFFFAOYSA-N

>  <SMILES>  (127) 
c1cc(c(nc1)c2[nH]c3ccc(cc3n2)C(=[NH2+])N)[O-]

>  <MissingHeavyAtoms>  (127) 
0

>  <Model>  (127) 
1

>  <AltIds>  (127) 


>  <pKI>  (127) 
5.74

>  <ChemblID>  (127) 
-

>  <standardized_canonical_smiles>  (127) 
NC(=[NH2+])c1ccc2[nH]c(-c3ncccc3[O-])nc2c1

$$$$
1O31_801_A_246
     RDKit          3D

 19 21  0  0  0  0  0  0  0  0999 V2000
   44.3700   -3.0900   26.2670 C   0  0  0  0  0  0  0  0  0  0  0  0
   44.8140   -1.7530   26.3560 C   0  0  0  0  0  0  0  0  0  0  0  0
   44.7790   -1.0720   27.5660 C   0  0  0  0  0  0  0  0  0  0  0  0
   44.3020   -1.7470   28.6640 C   0  0  0  0  0  0  0  0  0  0  0  0
   43.8680   -3.0290   28.6200 C   0  0  0  0  0  0  0  0  0  0  0  0
   43.8890   -3.7360   27.4270 C   0  0  0  0  0  0  0  0  0  0  0  0
   44.4050   -3.7600   25.0410 C   0  0  0  0  0  0  0  0  0  0  0  0
   44.1950   -5.0560   25.0070 N   0  0  0  0  0  0  0  0  0  0  0  0
   44.6400   -3.0780   23.9430 N   0  0  0  0  0  0  0  0  0  0  0  0
   44.1530   -1.3860   29.8830 N   0  0  0  0  0  0  0  0  0  0  0  0
   43.4520   -3.4780   29.7850 N   0  0  0  0  0  0  0  0  0  0  0  0
   43.6620   -2.3940   30.5310 C   0  0  0  0  0  0  0  0  0  0  0  0
   43.4100   -2.2850   31.9030 C   0  0  0  0  0  0  0  0  0  0  0  0
   43.1470   -3.3710   32.6050 N   0  0  0  0  0  0  0  0  0  0  0  0
   42.9040   -3.3380   33.9000 C   0  0  0  0  0  0  0  0  0  0  0  0
   42.9130   -2.1280   34.5910 C   0  0  0  0  0  0  0  0  0  0  0  0
   43.1830   -0.9580   33.9010 C   0  0  0  0  0  0  0  0  0  0  0  0
   43.4370   -1.0220   32.5440 C   0  0  0  0  0  0  0  0  0  0  0  0
   43.7020    0.1660   31.8820 O   0  0  0  0  0  0  0  0  0  0  0  0
  2  1  2  0
  6  1  1  0
  7  1  1  0
  3  2  1  0
  4  3  2  0
  5  4  1  0
 10  4  1  0
  6  5  2  0
 11  5  1  0
  8  7  1  0
  9  7  2  0
 12 10  1  0
 12 11  2  0
 13 12  1  0
 14 13  2  0
 18 13  1  0
 15 14  1  0
 16 15  2  0
 17 16  1  0
 18 17  2  0
 19 18  1  0
M  CHG  2   9   1  19  -1
A    1
C1
A    2
C2
A    3
C3
A    4
C4
A    5
C5
A    6
C6
A    7
C7
A    8
N1
A    9
N2
A   10
N3
A   11
N4
A   12
C8
A   13
C1'
A   14
N2'
A   15
C3'
A   16
C4'
A   17
C5'
A   18
C6'
A   19
O6'
M  END
>  <Id>  (128) 
1O31_801_A_246

>  <ChainId>  (128) 
A

>  <AsymId>  (128) 
C

>  <SeqNum>  (128) 
246

>  <Name>  (128) 
2-{5-[AMINO(IMINIO)METHYL]-1H-BENZIMIDAZOL-2-YL}PYRIDIN-3-OLATE

>  <SystematicName>  (128) 
2-[5-(amino-azaniumylidene-methyl)-1H-benzimidazol-2-yl]pyridin-3-olate

>  <Synonyms>  (128) 
CRA_1801

>  <Type>  (128) 
NON-POLYMER

>  <Formula>  (128) 
C13 H11 N5 O

>  <ObservedFormula>  (128) 
C13 N5 O

>  <MolecularWeight>  (128) 
253.259

>  <ModifiedDate>  (128) 
2011-06-04

>  <Parent>  (128) 


>  <OneLetterCode>  (128) 


>  <SubcomponentList>  (128) 


>  <AmbiguousFlag>  (128) 
N

>  <InsertionCode>  (128) 


>  <InstanceId>  (128) 
1O31_801_A_246

>  <ChemCompId>  (128) 
801

>  <PdbId>  (128) 
1O31

>  <ResidueNumber>  (128) 
246

>  <InChI>  (128) 
InChI=1S/C13H11N5O/c14-12(15)7-3-4-8-9(6-7)18-13(17-8)11-10(19)2-1-5-16-11/h1-6,19H,(H3,14,15)(H,17,18)

>  <InChIKey>  (128) 
FQCDQFDJHSXQKY-UHFFFAOYSA-N

>  <SMILES>  (128) 
c1cc(c(nc1)c2[nH]c3ccc(cc3n2)C(=[NH2+])N)[O-]

>  <MissingHeavyAtoms>  (128) 
0

>  <Model>  (128) 
1

>  <AltIds>  (128) 


>  <pKI>  (128) 
5.74

>  <ChemblID>  (128) 
-

>  <standardized_canonical_smiles>  (128) 
NC(=[NH2+])c1ccc2[nH]c(-c3ncccc3[O-])nc2c1

$$$$
2OXS_BEN_A_801
     RDKit          3D

  9  9  0  0  0  0  0  0  0  0999 V2000
   -1.8240   14.3560  -17.1230 C   0  0  0  0  0  0  0  0  0  0  0  0
   -2.0350   15.7260  -17.0730 C   0  0  0  0  0  0  0  0  0  0  0  0
   -1.7370   16.4360  -15.9180 C   0  0  0  0  0  0  0  0  0  0  0  0
   -1.2460   15.7890  -14.7950 C   0  0  0  0  0  0  0  0  0  0  0  0
   -1.0200   14.4340  -14.8430 C   0  0  0  0  0  0  0  0  0  0  0  0
   -1.3080   13.7280  -15.9980 C   0  0  0  0  0  0  0  0  0  0  0  0
   -2.1380   13.5780  -18.3510 C   0  0  0  0  0  0  0  0  0  0  0  0
   -2.8170   14.0630  -19.3050 N   0  0  0  0  0  0  0  0  0  0  0  0
   -1.7420   12.3150  -18.4490 N   0  0  0  0  0  0  0  0  0  0  0  0
  2  1  2  0
  6  1  1  0
  7  1  1  0
  3  2  1  0
  4  3  2  0
  5  4  1  0
  6  5  2  0
  8  7  2  0
  9  7  1  0
A    1
C1
A    2
C2
A    3
C3
A    4
C4
A    5
C5
A    6
C6
A    7
C
A    8
N1
A    9
N2
M  END
>  <Id>  (129) 
2OXS_BEN_A_801

>  <ChainId>  (129) 
A

>  <AsymId>  (129) 
D

>  <SeqNum>  (129) 
801

>  <Name>  (129) 
BENZAMIDINE

>  <SystematicName>  (129) 
benzenecarboximidamide

>  <Synonyms>  (129) 


>  <Type>  (129) 
NON-POLYMER

>  <Formula>  (129) 
C7 H8 N2

>  <ObservedFormula>  (129) 
C7 N2

>  <MolecularWeight>  (129) 
120.152

>  <ModifiedDate>  (129) 
2011-06-04

>  <Parent>  (129) 


>  <OneLetterCode>  (129) 


>  <SubcomponentList>  (129) 


>  <AmbiguousFlag>  (129) 
N

>  <InsertionCode>  (129) 


>  <InstanceId>  (129) 
2OXS_BEN_A_801

>  <ChemCompId>  (129) 
BEN

>  <PdbId>  (129) 
2OXS

>  <ResidueNumber>  (129) 
801

>  <InChI>  (129) 
InChI=1S/C7H8N2/c8-7(9)6-4-2-1-3-5-6/h1-5H,(H3,8,9)

>  <InChIKey>  (129) 
PXXJHWLDUBFPOL-UHFFFAOYSA-N

>  <SMILES>  (129) 
[H]/N=C(\c1ccccc1)/N

>  <MissingHeavyAtoms>  (129) 
0

>  <Model>  (129) 
1

>  <AltIds>  (129) 


>  <pKI>  (129) 
5.74

>  <ChemblID>  (129) 
-

>  <standardized_canonical_smiles>  (129) 
NC(=[NH2+])c1ccc2[nH]c(-c3ncccc3[O-])nc2c1

$$$$
2AGI_SO4_X_801
     RDKit          3D

  5  4  0  0  0  0  0  0  0  0999 V2000
   13.4170   84.0020   -1.9040 S   0  0  0  0  0  0  0  0  0  0  0  0
   12.2960   83.4150   -1.1860 O   0  0  0  0  0  0  0  0  0  0  0  0
   14.5540   83.1720   -1.4910 O   0  0  0  0  0  0  0  0  0  0  0  0
   13.2480   83.9870   -3.3760 O   0  0  0  0  0  0  0  0  0  0  0  0
   13.6430   85.3750   -1.4140 O   0  0  0  0  0  0  0  0  0  0  0  0
  2  1  2  0
  3  1  2  0
  4  1  1  0
  5  1  1  0
M  CHG  2   4  -1   5  -1
A    1
S
A    2
O1
A    3
O2
A    4
O3
A    5
O4
M  END
>  <Id>  (130) 
2AGI_SO4_X_801

>  <ChainId>  (130) 
X

>  <AsymId>  (130) 
D

>  <SeqNum>  (130) 
801

>  <Name>  (130) 
SULFATE ION

>  <SystematicName>  (130) 
sulfate

>  <Synonyms>  (130) 


>  <Type>  (130) 
NON-POLYMER

>  <Formula>  (130) 
O4 S

>  <ObservedFormula>  (130) 
S O4

>  <MolecularWeight>  (130) 
96.063

>  <ModifiedDate>  (130) 
2011-06-04

>  <Parent>  (130) 


>  <OneLetterCode>  (130) 


>  <SubcomponentList>  (130) 


>  <AmbiguousFlag>  (130) 
N

>  <InsertionCode>  (130) 


>  <InstanceId>  (130) 
2AGI_SO4_X_801

>  <ChemCompId>  (130) 
SO4

>  <PdbId>  (130) 
2AGI

>  <ResidueNumber>  (130) 
801

>  <InChI>  (130) 
InChI=1S/H2O4S/c1-5(2,3)4/h(H2,1,2,3,4)/p-2

>  <InChIKey>  (130) 
QAOWNCQODCNURD-UHFFFAOYSA-L

>  <SMILES>  (130) 
[O-]S(=O)(=O)[O-]

>  <MissingHeavyAtoms>  (130) 
0

>  <Model>  (130) 
1

>  <AltIds>  (130) 


>  <pKI>  (130) 
5.74

>  <ChemblID>  (130) 
-

>  <standardized_canonical_smiles>  (130) 
NC(=[NH2+])c1ccc2[nH]c(-c3ncccc3[O-])nc2c1

$$$$
2AYW_BEN_A_801
     RDKit          3D

  9  9  0  0  0  0  0  0  0  0999 V2000
   32.4390    3.1980    6.8030 C   0  0  0  0  0  0  0  0  0  0  0  0
   33.5900    2.4970    7.1640 C   0  0  0  0  0  0  0  0  0  0  0  0
   34.8340    2.9030    6.7190 C   0  0  0  0  0  0  0  0  0  0  0  0
   34.9460    4.0200    5.9080 C   0  0  0  0  0  0  0  0  0  0  0  0
   33.8060    4.7280    5.5300 C   0  0  0  0  0  0  0  0  0  0  0  0
   32.5550    4.3220    5.9850 C   0  0  0  0  0  0  0  0  0  0  0  0
   31.0850    2.7590    7.2750 C   0  0  0  0  0  0  0  0  0  0  0  0
   30.9460    2.0060    8.2750 N   0  0  0  0  0  0  0  0  0  0  0  0
   29.9980    3.1830    6.6470 N   0  0  0  0  0  0  0  0  0  0  0  0
  2  1  2  0
  6  1  1  0
  7  1  1  0
  3  2  1  0
  4  3  2  0
  5  4  1  0
  6  5  2  0
  8  7  2  0
  9  7  1  0
A    1
C1
A    2
C2
A    3
C3
A    4
C4
A    5
C5
A    6
C6
A    7
C
A    8
N1
A    9
N2
M  END
>  <Id>  (131) 
2AYW_BEN_A_801

>  <ChainId>  (131) 
A

>  <AsymId>  (131) 
E

>  <SeqNum>  (131) 
801

>  <Name>  (131) 
BENZAMIDINE

>  <SystematicName>  (131) 
benzenecarboximidamide

>  <Synonyms>  (131) 


>  <Type>  (131) 
NON-POLYMER

>  <Formula>  (131) 
C7 H8 N2

>  <ObservedFormula>  (131) 
C7 N2

>  <MolecularWeight>  (131) 
120.152

>  <ModifiedDate>  (131) 
2011-06-04

>  <Parent>  (131) 


>  <OneLetterCode>  (131) 


>  <SubcomponentList>  (131) 


>  <AmbiguousFlag>  (131) 
N

>  <InsertionCode>  (131) 


>  <InstanceId>  (131) 
2AYW_BEN_A_801

>  <ChemCompId>  (131) 
BEN

>  <PdbId>  (131) 
2AYW

>  <ResidueNumber>  (131) 
801

>  <InChI>  (131) 
InChI=1S/C7H8N2/c8-7(9)6-4-2-1-3-5-6/h1-5H,(H3,8,9)

>  <InChIKey>  (131) 
PXXJHWLDUBFPOL-UHFFFAOYSA-N

>  <SMILES>  (131) 
[H]/N=C(\c1ccccc1)/N

>  <MissingHeavyAtoms>  (131) 
0

>  <Model>  (131) 
1

>  <AltIds>  (131) 


>  <pKI>  (131) 
5.74

>  <ChemblID>  (131) 
-

>  <standardized_canonical_smiles>  (131) 
NC(=[NH2+])c1ccc2[nH]c(-c3ncccc3[O-])nc2c1

$$$$
2ZFT_DMS_A_801
     RDKit          3D

  4  3  0  0  0  0  0  0  0  0999 V2000
  -16.7700    9.6970   -6.9250 S   0  0  0  0  0  0  0  0  0  0  0  0
  -17.2420    8.4450   -7.5170 O   0  0  0  0  0  0  0  0  0  0  0  0
  -18.3590   10.2780   -6.1950 C   0  0  0  0  0  0  0  0  0  0  0  0
  -16.8890   10.9470   -8.2700 C   0  0  0  0  0  0  0  0  0  0  0  0
  2  1  2  0
  3  1  1  0
  4  1  1  0
A    1
S
A    2
O
A    3
C1
A    4
C2
M  END
>  <Id>  (132) 
2ZFT_DMS_A_801

>  <ChainId>  (132) 
A

>  <AsymId>  (132) 
D

>  <SeqNum>  (132) 
801

>  <Name>  (132) 
DIMETHYL SULFOXIDE

>  <SystematicName>  (132) 
methylsulfinylmethane

>  <Synonyms>  (132) 


>  <Type>  (132) 
NON-POLYMER

>  <Formula>  (132) 
C2 H6 O S

>  <ObservedFormula>  (132) 
S C2 O

>  <MolecularWeight>  (132) 
78.133

>  <ModifiedDate>  (132) 
2011-06-04

>  <Parent>  (132) 


>  <OneLetterCode>  (132) 


>  <SubcomponentList>  (132) 


>  <AmbiguousFlag>  (132) 
N

>  <InsertionCode>  (132) 


>  <InstanceId>  (132) 
2ZFT_DMS_A_801

>  <ChemCompId>  (132) 
DMS

>  <PdbId>  (132) 
2ZFT

>  <ResidueNumber>  (132) 
801

>  <InChI>  (132) 
InChI=1S/C2H6OS/c1-4(2)3/h1-2H3

>  <InChIKey>  (132) 
IAZDPXIOMUYVGZ-UHFFFAOYSA-N

>  <SMILES>  (132) 
CS(=O)C

>  <MissingHeavyAtoms>  (132) 
0

>  <Model>  (132) 
1

>  <AltIds>  (132) 


>  <pKI>  (132) 
5.74

>  <ChemblID>  (132) 
-

>  <standardized_canonical_smiles>  (132) 
NC(=[NH2+])c1ccc2[nH]c(-c3ncccc3[O-])nc2c1

$$$$
2AH4_GBS_X_1195
     RDKit          3D

 12 12  0  0  0  0  0  0  0  0999 V2000
   27.9300   14.3380   20.6320 C   0  0  0  0  0  0  0  0  0  0  0  0
   28.7130   13.9470   21.4800 O   0  0  0  0  0  0  0  0  0  0  0  0
   28.2380   14.2570   19.1740 C   0  0  0  0  0  0  0  0  0  0  0  0
   27.5590   15.0420   18.2440 C   0  0  0  0  0  0  0  0  0  0  0  0
   29.2790   13.4310   18.7230 C   0  0  0  0  0  0  0  0  0  0  0  0
   27.9220   15.0370   16.8910 C   0  0  0  0  0  0  0  0  0  0  0  0
   29.6480   13.3910   17.3820 C   0  0  0  0  0  0  0  0  0  0  0  0
   28.9820   14.2050   16.4680 C   0  0  0  0  0  0  0  0  0  0  0  0
   29.3920   14.1540   15.1460 N   0  0  0  0  0  0  0  0  0  0  0  0
   29.4930   15.1430   14.2940 C   0  0  0  0  0  0  0  0  0  0  0  0
   29.8040   14.8820   13.0240 N   0  0  0  0  0  0  0  0  0  0  0  0
   29.2440   16.3990   14.6240 N   0  0  0  0  0  0  0  0  0  0  0  0
  2  1  2  0
  3  1  1  0
  4  3  2  0
  5  3  1  0
  6  4  1  0
  7  5  2  0
  8  6  2  0
  8  7  1  0
  9  8  1  0
 10  9  1  0
 11 10  1  0
 12 10  2  0
A    1
CD
A    2
OD
A    3
C1
A    4
C21
A    5
C22
A    6
C31
A    7
C32
A    8
C4
A    9
NE
A   10
CZ
A   11
NH1
A   12
NH2
M  END
>  <Id>  (133) 
2AH4_GBS_X_1195

>  <ChainId>  (133) 
X

>  <AsymId>  (133) 
G

>  <SeqNum>  (133) 
1195

>  <Name>  (133) 
4-GUANIDINOBENZOIC ACID

>  <SystematicName>  (133) 
4-carbamimidamidobenzoic acid

>  <Synonyms>  (133) 


>  <Type>  (133) 
NON-POLYMER

>  <Formula>  (133) 
C8 H9 N3 O2

>  <ObservedFormula>  (133) 
C8 N3 O

>  <MolecularWeight>  (133) 
179.176

>  <ModifiedDate>  (133) 
2011-06-04

>  <Parent>  (133) 


>  <OneLetterCode>  (133) 


>  <SubcomponentList>  (133) 


>  <AmbiguousFlag>  (133) 
N

>  <InsertionCode>  (133) 


>  <InstanceId>  (133) 
2AH4_GBS_X_1195

>  <ChemCompId>  (133) 
GBS

>  <PdbId>  (133) 
2AH4

>  <ResidueNumber>  (133) 
1195

>  <InChI>  (133) 
InChI=1S/C8H9N3O2/c9-8(10)11-6-3-1-5(2-4-6)7(12)13/h1-4H,(H,12,13)(H4,9,10,11)

>  <InChIKey>  (133) 
SXTSBZBQQRIYCU-UHFFFAOYSA-N

>  <MissingHeavyAtoms>  (133) 
1

>  <Model>  (133) 
1

>  <AltIds>  (133) 


>  <pKI>  (133) 
2.0

>  <ChemblID>  (133) 
-

>  <standardized_canonical_smiles>  (133) 
N=C(N)Nc1ccc(C(=O)O)cc1

$$$$
1GBT_GBS_A_704
     RDKit          3D

 12 12  0  0  0  0  0  0  0  0999 V2000
   44.1590   -3.2850   27.8510 C   0  0  0  0  0  0  0  0  0  0  0  0
   45.4450    0.0820   30.1080 O   0  0  0  0  0  0  0  0  0  0  0  0
   43.7310   -1.8150   26.0040 C   0  0  0  0  0  0  0  0  0  0  0  0
   44.0110   -0.7260   26.8470 C   0  0  0  0  0  0  0  0  0  0  0  0
   44.7730    0.3020   29.0190 C   0  0  0  0  0  0  0  0  0  0  0  0
   43.7510   -4.4610   24.5790 C   0  0  0  0  0  0  0  0  0  0  0  0
   44.4010   -0.9100   28.1860 C   0  0  0  0  0  0  0  0  0  0  0  0
   44.4640   -2.2210   28.6830 C   0  0  0  0  0  0  0  0  0  0  0  0
   43.6920   -3.0930   26.5570 C   0  0  0  0  0  0  0  0  0  0  0  0
   43.3590   -5.5750   23.9830 N   0  0  0  0  0  0  0  0  0  0  0  0
   44.5300   -3.6370   23.8900 N   0  0  0  0  0  0  0  0  0  0  0  0
   43.3380   -4.2160   25.8170 N   0  0  0  0  0  0  0  0  0  0  0  0
  9 12  1  0
  5  7  1  0
  7  8  2  0
  1  9  2  0
  5  2  2  0
  7  4  1  0
  4  3  2  0
  6 11  1  0
 12  6  1  0
  8  1  1  0
  6 10  2  0
  3  9  1  0
A    1
C32
A    2
OD
A    3
C31
A    4
C21
A    5
CD
A    6
CZ
A    7
C1
A    8
C22
A    9
C4
A   10
NH2
A   11
NH1
A   12
NE
M  END
>  <InstanceId>  (134) 
1GBT_GBS_A_704

>  <ChemCompId>  (134) 
GBS

>  <PdbId>  (134) 
1GBT

>  <ChainId>  (134) 
A

>  <ResidueNumber>  (134) 
704

>  <InsertionCode>  (134) 


>  <Model>  (134) 
1

>  <AltIds>  (134) 


>  <MissingHeavyAtoms>  (134) 
1

>  <ObservedFormula>  (134) 
C8 N3 O

>  <AsymId>  (134) 
E

>  <SeqNum>  (134) 
704

>  <Name>  (134) 
4-GUANIDINOBENZOIC ACID

>  <SystematicName>  (134) 
4-carbamimidamidobenzoic acid

>  <Synonyms>  (134) 


>  <Type>  (134) 
NON-POLYMER

>  <Formula>  (134) 
C8 H9 N3 O2

>  <MolecularWeight>  (134) 
179.176

>  <ModifiedDate>  (134) 
2011-06-04

>  <Parent>  (134) 


>  <OneLetterCode>  (134) 


>  <SubcomponentList>  (134) 


>  <AmbiguousFlag>  (134) 
N

>  <InChI>  (134) 
null

>  <InChIKey>  (134) 
null

>  <SMILES>  (134) 
c1cc(ccc1C(=O)O)NC(=N)N

>  <pKI>  (134) 
2.0

>  <ChemblID>  (134) 
-

>  <standardized_canonical_smiles>  (134) 
N=C(N)Nc1ccc(C(=O)O)cc1

$$$$
3RXJ_GBS_A_9
     RDKit          3D

 13 13  0  0  0  0  0  0  0  0999 V2000
   -0.2630  -15.1340   13.4860 C   0  0  0  0  0  0  0  0  0  0  0  0
   -0.5370  -16.2780   12.7900 O   0  0  0  0  0  0  0  0  0  0  0  0
   -0.9620  -14.9950   14.7640 C   0  0  0  0  0  0  0  0  0  0  0  0
   -0.7010  -13.9270   15.6300 C   0  0  0  0  0  0  0  0  0  0  0  0
   -1.9090  -15.9640   15.1260 C   0  0  0  0  0  0  0  0  0  0  0  0
   -1.2860  -13.8840   16.8890 C   0  0  0  0  0  0  0  0  0  0  0  0
   -2.4990  -15.9310   16.3820 C   0  0  0  0  0  0  0  0  0  0  0  0
   -2.1520  -14.9190   17.3100 C   0  0  0  0  0  0  0  0  0  0  0  0
   -2.7620  -14.8980   18.5790 N   0  0  0  0  0  0  0  0  0  0  0  0
   -2.5200  -13.7590   19.4550 C   0  0  0  0  0  0  0  0  0  0  0  0
   -2.1750  -12.6040   18.9560 N   0  0  0  0  0  0  0  0  0  0  0  0
   -2.6050  -14.0820   20.8430 N   0  0  0  0  0  0  0  0  0  0  0  0
    0.5440  -14.3600   12.9560 O   0  0  0  0  0  0  0  0  0  0  0  0
  2  1  2  0
  3  1  1  0
 13  1  1  0
  4  3  2  0
  5  3  1  0
  6  4  1  0
  7  5  2  0
  8  6  2  0
  8  7  1  0
  9  8  1  0
 10  9  1  0
 11 10  1  0
 12 10  2  0
A    1
CD
A    2
OD
A    3
C1
A    4
C21
A    5
C22
A    6
C31
A    7
C32
A    8
C4
A    9
NE
A   10
CZ
A   11
NH1
A   12
NH2
A   13
OXT
M  END
>  <Id>  (135) 
3RXJ_GBS_A_9

>  <ChainId>  (135) 
A

>  <AsymId>  (135) 
J

>  <SeqNum>  (135) 
9

>  <Name>  (135) 
4-GUANIDINOBENZOIC ACID

>  <SystematicName>  (135) 
4-carbamimidamidobenzoic acid

>  <Synonyms>  (135) 


>  <Type>  (135) 
NON-POLYMER

>  <Formula>  (135) 
C8 H9 N3 O2

>  <ObservedFormula>  (135) 
C8 N3 O2

>  <MolecularWeight>  (135) 
179.176

>  <ModifiedDate>  (135) 
2011-06-04

>  <Parent>  (135) 


>  <OneLetterCode>  (135) 


>  <SubcomponentList>  (135) 


>  <AmbiguousFlag>  (135) 
N

>  <InsertionCode>  (135) 


>  <InstanceId>  (135) 
3RXJ_GBS_A_9

>  <ChemCompId>  (135) 
GBS

>  <PdbId>  (135) 
3RXJ

>  <ResidueNumber>  (135) 
9

>  <InChI>  (135) 
InChI=1S/C8H9N3O2/c9-8(10)11-6-3-1-5(2-4-6)7(12)13/h1-4H,(H,12,13)(H4,9,10,11)

>  <InChIKey>  (135) 
SXTSBZBQQRIYCU-UHFFFAOYSA-N

>  <SMILES>  (135) 
c1cc(ccc1C(=O)O)NC(=N)N

>  <MissingHeavyAtoms>  (135) 
0

>  <Model>  (135) 
1

>  <AltIds>  (135) 


>  <pKI>  (135) 
2.0

>  <ChemblID>  (135) 
-

>  <standardized_canonical_smiles>  (135) 
N=C(N)Nc1ccc(C(=O)O)cc1

$$$$
3AAU_GZC_A_3001
     RDKit          3D

 28 29  0  0  0  0  0  0  0  0999 V2000
   -0.0670   21.6430   29.2130 N   0  0  0  0  0  0  0  0  0  0  0  0
    0.5650   20.5600   28.7720 C   0  0  0  0  0  0  0  0  0  0  0  0
    1.3320   20.3610   27.7490 N   0  0  0  0  0  0  0  0  0  0  0  0
    0.9210   19.6980   26.6710 C   0  0  0  0  0  0  0  0  0  0  0  0
    1.1060   18.3200   26.6360 C   0  0  0  0  0  0  0  0  0  0  0  0
    0.7560   17.5950   25.5060 C   0  0  0  0  0  0  0  0  0  0  0  0
   -0.0950   14.7450   19.4760 C   0  0  0  0  0  0  0  0  0  0  0  0
   -0.4160   14.0240   18.3320 C   0  0  0  0  0  0  0  0  0  0  0  0
   -1.2890   14.5700   17.3960 C   0  0  0  0  0  0  0  0  0  0  0  0
   -1.6040   13.8400   16.3290 N   0  0  0  0  0  0  0  0  0  0  0  0
   -2.2460   14.3050   15.2590 C   0  0  0  0  0  0  0  0  0  0  0  0
   -2.7650   13.4470   14.3840 N   0  0  0  0  0  0  0  0  0  0  0  0
    0.3850   19.4020   29.3990 N   0  0  0  0  0  0  0  0  0  0  0  0
    0.3710   20.3410   25.5660 C   0  0  0  0  0  0  0  0  0  0  0  0
    0.0130   19.6200   24.4350 C   0  0  0  0  0  0  0  0  0  0  0  0
    0.2210   18.2480   24.4030 C   0  0  0  0  0  0  0  0  0  0  0  0
   -0.0140   17.5430   23.2670 O   0  0  0  0  0  0  0  0  0  0  0  0
   -0.3200   16.6930   20.8150 O   0  0  0  0  0  0  0  0  0  0  0  0
   -0.6460   16.0030   19.6890 C   0  0  0  0  0  0  0  0  0  0  0  0
   -1.5260   16.5610   18.7650 C   0  0  0  0  0  0  0  0  0  0  0  0
   -1.8320   15.8300   17.6220 C   0  0  0  0  0  0  0  0  0  0  0  0
   -2.3430   15.6110   15.0300 N   0  0  0  0  0  0  0  0  0  0  0  0
   -0.6570   20.2320   23.3820 C   0  0  0  0  0  0  0  0  0  0  0  0
   -1.1070   19.9810   22.2900 N   0  0  0  0  0  0  0  0  0  0  0  0
   -1.7000   20.7590   21.1910 C   0  0  0  0  0  0  0  0  0  0  0  0
   -2.2710   19.8780   20.2810 C   0  0  0  0  0  0  0  0  0  0  0  0
   -1.5880   18.8410   19.8260 N   0  0  0  0  0  0  0  0  0  0  0  0
   -2.2400   17.9060   18.9260 C   0  0  0  0  0  0  0  0  0  0  0  0
  2  1  1  0
  3  2  1  0
 13  2  2  0
  4  3  1  0
  5  4  2  0
 14  4  1  0
  6  5  1  0
 16  6  2  0
  8  7  2  0
 19  7  1  0
  9  8  1  0
 10  9  1  0
 21  9  2  0
 11 10  1  0
 12 11  1  0
 22 11  2  0
 15 14  2  0
 16 15  1  0
 23 15  1  0
 17 16  1  0
 19 18  1  0
 20 19  2  0
 21 20  1  0
 28 20  1  0
 24 23  2  0
 25 24  1  0
 26 25  1  0
 27 26  1  0
 28 27  2  0
A    1
NAA
A    2
CAB
A    3
NAC
A    4
CAD
A    5
CAE
A    6
CAF
A    7
CAG
A    8
CAH
A    9
CAI
A   10
NAJ
A   11
CAK
A   12
NAL
A   13
NAM
A   14
CAN
A   15
CAO
A   16
CAP
A   17
OAQ
A   18
OAR
A   19
CAS
A   20
CAT
A   21
CAU
A   22
NAV
A   23
CAW
A   24
NAX
A   25
CAY
A   26
CAZ
A   27
NBA
A   28
CBB
M  END
>  <Id>  (136) 
3AAU_GZC_A_3001

>  <ChainId>  (136) 
A

>  <AsymId>  (136) 
B

>  <SeqNum>  (136) 
3001

>  <Name>  (136) 
N,N'''-{ethane-1,2-diylbis[nitrilo(E)methylylidene(4-hydroxybenzene-3,1-diyl)]}diguanidine

>  <SystematicName>  (136) 
1-[3-[(E)-2-[(E)-(5-carbamimidamido-2-hydroxy-phenyl)methylideneamino]ethyliminomethyl]-4-hydroxy-phenyl]guanidine

>  <Synonyms>  (136) 


>  <Type>  (136) 
NON-POLYMER

>  <Formula>  (136) 
C18 H22 N8 O2

>  <ObservedFormula>  (136) 
C18 N8 O2

>  <MolecularWeight>  (136) 
382.42

>  <ModifiedDate>  (136) 
2011-06-04

>  <Parent>  (136) 


>  <OneLetterCode>  (136) 


>  <SubcomponentList>  (136) 


>  <AmbiguousFlag>  (136) 
N

>  <InsertionCode>  (136) 


>  <InstanceId>  (136) 
3AAU_GZC_A_3001

>  <ChemCompId>  (136) 
GZC

>  <PdbId>  (136) 
3AAU

>  <ResidueNumber>  (136) 
3001

>  <InChI>  (136) 
InChI=1S/C18H22N8O2/c19-17(20)25-13-1-3-15(27)11(7-13)9-23-5-6-24-10-12-8-14(26-18(21)22)2-4-16(12)28/h1-4,7-10,27-28H,5-6H2,(H4,19,20,25)(H4,21,22,26)/b23-9+,24-10+

>  <InChIKey>  (136) 
VDYARAMMHWMLLR-WDBPGAOMSA-N

>  <SMILES>  (136) 
[H]/N=C(\Nc1cc(c(cc1)O)/C=N/CC/N=C/c2c(ccc(c2)N/C(=N/[H])/N)O)/N

>  <MissingHeavyAtoms>  (136) 
0

>  <Model>  (136) 
1

>  <AltIds>  (136) 


>  <pKI>  (136) 
5.05

>  <ChemblID>  (136) 
-

>  <standardized_canonical_smiles>  (136) 
N=C(N)Nc1ccc(O)c(/C=N/CC/N=C/c2cc(NC(=N)N)ccc2O)c1

$$$$
1TNL_TPA_A_900
     RDKit          3D

 10 11  0  0  0  0  0  0  0  0999 V2000
   29.9220   15.1630   13.4350 N   0  0  0  0  0  0  0  0  0  0  0  0
   28.9490   15.1840   15.6180 C   0  0  0  0  0  0  0  0  0  0  0  0
   29.1430   14.7060   17.0310 C   0  0  0  0  0  0  0  0  0  0  0  0
   30.1900   15.4610   14.8430 C   0  0  0  0  0  0  0  0  0  0  0  0
   29.6770   13.4390   17.2310 C   0  0  0  0  0  0  0  0  0  0  0  0
   29.3470   16.5960   15.4000 C   0  0  0  0  0  0  0  0  0  0  0  0
   28.7430   14.9720   19.3680 C   0  0  0  0  0  0  0  0  0  0  0  0
   29.7350   12.9350   18.5160 C   0  0  0  0  0  0  0  0  0  0  0  0
   28.6820   15.4810   18.0860 C   0  0  0  0  0  0  0  0  0  0  0  0
   29.2640   13.6990   19.5790 C   0  0  0  0  0  0  0  0  0  0  0  0
  3  5  2  0
  4  6  1  0
  2  3  1  0
  2  6  1  0
  4  1  1  0
  9  7  2  0
  8  5  1  0
 10  8  2  0
  3  9  1  0
  4  2  1  0
  7 10  1  0
M  CHG  1   1   1
A    1
N
A    2
C2
A    3
C1'
A    4
C1
A    5
C6'
A    6
C3
A    7
C3'
A    8
C5'
A    9
C2'
A   10
C4'
M  END
>  <InstanceId>  (137) 
1TNL_TPA_A_900

>  <ChemCompId>  (137) 
TPA

>  <PdbId>  (137) 
1TNL

>  <ChainId>  (137) 
A

>  <ResidueNumber>  (137) 
900

>  <InsertionCode>  (137) 


>  <Model>  (137) 
1

>  <AltIds>  (137) 


>  <MissingHeavyAtoms>  (137) 
0

>  <ObservedFormula>  (137) 
C9 N

>  <AsymId>  (137) 
C

>  <SeqNum>  (137) 
900

>  <Name>  (137) 
TRANS-2-PHENYLCYCLOPROPYLAMINE

>  <SystematicName>  (137) 
[(1S,2R)-2-phenylcyclopropyl]azanium

>  <Synonyms>  (137) 


>  <Type>  (137) 
NON-POLYMER

>  <Formula>  (137) 
C9 H12 N

>  <MolecularWeight>  (137) 
134.198

>  <ModifiedDate>  (137) 
2011-06-04

>  <Parent>  (137) 


>  <OneLetterCode>  (137) 


>  <SubcomponentList>  (137) 


>  <AmbiguousFlag>  (137) 
N

>  <InChI>  (137) 
null

>  <InChIKey>  (137) 
null

>  <SMILES>  (137) 
c1ccc(cc1)[C@H]2C[C@@H]2[NH3+]

>  <pKI>  (137) 
1.88

>  <ChemblID>  (137) 
-

>  <standardized_canonical_smiles>  (137) 
[NH3+][C@H]1C[C@@H]1c1ccccc1

$$$$
1TNG_AMC_A_900
     RDKit          3D

  8  8  0  0  0  0  0  0  0  0999 V2000
   29.4710   15.0640   16.9590 C   0  0  0  0  0  0  0  0  0  0  0  0
   29.6470   13.5710   16.9460 C   0  0  0  0  0  0  0  0  0  0  0  0
   29.8870   13.0470   18.3560 C   0  0  0  0  0  0  0  0  0  0  0  0
   28.6840   13.3890   19.2590 C   0  0  0  0  0  0  0  0  0  0  0  0
   28.3610   14.8940   19.2410 C   0  0  0  0  0  0  0  0  0  0  0  0
   28.2560   15.3640   17.7860 C   0  0  0  0  0  0  0  0  0  0  0  0
   29.2860   15.5890   15.5510 C   0  0  0  0  0  0  0  0  0  0  0  0
   30.5350   15.6930   14.8290 N   0  0  0  0  0  0  0  0  0  0  0  0
  2  1  1  0
  6  1  1  0
  7  1  1  0
  3  2  1  0
  4  3  1  0
  5  4  1  0
  6  5  1  0
  8  7  1  0
M  CHG  1   8   1
A    1
C1
A    2
C2
A    3
C3
A    4
C4
A    5
C5
A    6
C6
A    7
CM
A    8
N
M  END
>  <Id>  (138) 
1TNG_AMC_A_900

>  <ChainId>  (138) 
A

>  <AsymId>  (138) 
C

>  <SeqNum>  (138) 
900

>  <Name>  (138) 
AMINOMETHYLCYCLOHEXANE

>  <SystematicName>  (138) 
cyclohexylmethylazanium

>  <Synonyms>  (138) 


>  <Type>  (138) 
NON-POLYMER

>  <Formula>  (138) 
C7 H16 N

>  <ObservedFormula>  (138) 
C7 N

>  <MolecularWeight>  (138) 
114.209

>  <ModifiedDate>  (138) 
2011-06-04

>  <Parent>  (138) 


>  <OneLetterCode>  (138) 


>  <SubcomponentList>  (138) 


>  <AmbiguousFlag>  (138) 
N

>  <InsertionCode>  (138) 


>  <InstanceId>  (138) 
1TNG_AMC_A_900

>  <ChemCompId>  (138) 
AMC

>  <PdbId>  (138) 
1TNG

>  <ResidueNumber>  (138) 
900

>  <InChI>  (138) 
InChI=1S/C7H15N/c8-6-7-4-2-1-3-5-7/h7H,1-6,8H2/p+1

>  <InChIKey>  (138) 
AVKNGPAMCBSNSO-UHFFFAOYSA-O

>  <SMILES>  (138) 
C1CCC(CC1)C[NH3+]

>  <MissingHeavyAtoms>  (138) 
0

>  <Model>  (138) 
1

>  <AltIds>  (138) 


>  <pKI>  (138) 
2.93

>  <ChemblID>  (138) 
-

>  <standardized_canonical_smiles>  (138) 
[NH3+]CC1CCCCC1

$$$$
1TNH_FBA_A_900
     RDKit          3D

  9  9  0  0  0  0  0  0  0  0999 V2000
   29.1540   14.9450   16.6050 C   0  0  0  0  0  0  0  0  0  0  0  0
   29.5030   13.6110   16.6670 C   0  0  0  0  0  0  0  0  0  0  0  0
   29.4740   12.9380   17.8740 C   0  0  0  0  0  0  0  0  0  0  0  0
   29.0770   13.6200   19.0180 C   0  0  0  0  0  0  0  0  0  0  0  0
   28.7230   14.9550   18.9610 C   0  0  0  0  0  0  0  0  0  0  0  0
   28.7710   15.6060   17.7440 C   0  0  0  0  0  0  0  0  0  0  0  0
   29.1690   15.7050   15.2980 C   0  0  0  0  0  0  0  0  0  0  0  0
   30.4080   15.5270   14.6230 N   0  0  0  0  0  0  0  0  0  0  0  0
   29.0060   12.9520   20.2340 F   0  0  0  0  0  0  0  0  0  0  0  0
  2  1  2  0
  6  1  1  0
  7  1  1  0
  3  2  1  0
  4  3  2  0
  5  4  1  0
  9  4  1  0
  6  5  2  0
  8  7  1  0
M  CHG  1   8   1
A    1
C1
A    2
C2
A    3
C3
A    4
C4
A    5
C5
A    6
C6
A    7
C
A    8
N
A    9
F
M  END
>  <Id>  (139) 
1TNH_FBA_A_900

>  <ChainId>  (139) 
A

>  <AsymId>  (139) 
C

>  <SeqNum>  (139) 
900

>  <Name>  (139) 
4-FLUOROBENZYLAMINE

>  <SystematicName>  (139) 
(4-fluorophenyl)methylazanium

>  <Synonyms>  (139) 


>  <Type>  (139) 
NON-POLYMER

>  <Formula>  (139) 
C7 H9 F N

>  <ObservedFormula>  (139) 
C7 F N

>  <MolecularWeight>  (139) 
126.151

>  <ModifiedDate>  (139) 
2011-06-04

>  <Parent>  (139) 


>  <OneLetterCode>  (139) 


>  <SubcomponentList>  (139) 


>  <AmbiguousFlag>  (139) 
N

>  <InsertionCode>  (139) 


>  <InstanceId>  (139) 
1TNH_FBA_A_900

>  <ChemCompId>  (139) 
FBA

>  <PdbId>  (139) 
1TNH

>  <ResidueNumber>  (139) 
900

>  <InChI>  (139) 
InChI=1S/C7H8FN/c8-7-3-1-6(5-9)2-4-7/h1-4H,5,9H2/p+1

>  <InChIKey>  (139) 
IIFVWLUQBAIPMJ-UHFFFAOYSA-O

>  <SMILES>  (139) 
c1cc(ccc1C[NH3+])F

>  <MissingHeavyAtoms>  (139) 
0

>  <Model>  (139) 
1

>  <AltIds>  (139) 


>  <pKI>  (139) 
3.37

>  <ChemblID>  (139) 
-

>  <standardized_canonical_smiles>  (139) 
[NH3+]Cc1ccc(F)cc1

$$$$
1UTO_PEA_A_1246
     RDKit          3D

  9  9  0  0  0  0  0  0  0  0999 V2000
   45.2880   20.2790   50.4580 C   0  0  0  0  0  0  0  0  0  0  0  0
   46.2750   21.2320   50.6380 C   0  0  0  0  0  0  0  0  0  0  0  0
   46.1530   22.5390   50.1950 C   0  0  0  0  0  0  0  0  0  0  0  0
   45.0100   22.9460   49.5230 C   0  0  0  0  0  0  0  0  0  0  0  0
   44.0220   22.0000   49.3210 C   0  0  0  0  0  0  0  0  0  0  0  0
   44.1610   20.7100   49.7750 C   0  0  0  0  0  0  0  0  0  0  0  0
   45.4430   18.9650   50.9490 C   0  0  0  0  0  0  0  0  0  0  0  0
   45.5370   18.9420   52.5050 C   0  0  0  0  0  0  0  0  0  0  0  0
   45.7910   17.5620   53.0200 N   0  0  0  0  0  0  0  0  0  0  0  0
  2  1  2  0
  6  1  1  0
  7  1  1  0
  3  2  1  0
  4  3  2  0
  5  4  1  0
  6  5  2  0
  8  7  1  0
  9  8  1  0
M  CHG  1   9   1
A    1
C1'
A    2
C6'
A    3
C5'
A    4
C4'
A    5
C3'
A    6
C2'
A    7
C2
A    8
C1
A    9
N
M  END
>  <Id>  (140) 
1UTO_PEA_A_1246

>  <ChainId>  (140) 
A

>  <AsymId>  (140) 
B

>  <SeqNum>  (140) 
1246

>  <Name>  (140) 
2-PHENYLETHYLAMINE

>  <SystematicName>  (140) 
phenethylazanium

>  <Synonyms>  (140) 


>  <Type>  (140) 
NON-POLYMER

>  <Formula>  (140) 
C8 H12 N

>  <ObservedFormula>  (140) 
C8 N

>  <MolecularWeight>  (140) 
122.188

>  <ModifiedDate>  (140) 
2011-06-04

>  <Parent>  (140) 


>  <OneLetterCode>  (140) 


>  <SubcomponentList>  (140) 


>  <AmbiguousFlag>  (140) 
N

>  <InsertionCode>  (140) 


>  <InstanceId>  (140) 
1UTO_PEA_A_1246

>  <ChemCompId>  (140) 
PEA

>  <PdbId>  (140) 
1UTO

>  <ResidueNumber>  (140) 
1246

>  <InChI>  (140) 
InChI=1S/C8H11N/c9-7-6-8-4-2-1-3-5-8/h1-5H,6-7,9H2/p+1

>  <InChIKey>  (140) 
BHHGXPLMPWCGHP-UHFFFAOYSA-O

>  <SMILES>  (140) 
c1ccc(cc1)CC[NH3+]

>  <MissingHeavyAtoms>  (140) 
0

>  <Model>  (140) 
1

>  <AltIds>  (140) 


>  <pKI>  (140) 
1.96

>  <ChemblID>  (140) 
-

>  <standardized_canonical_smiles>  (140) 
[NH3+]CCc1ccccc1

$$$$
1TNJ_PEA_A_900
     RDKit          3D

  9  9  0  0  0  0  0  0  0  0999 V2000
   29.4980   14.9640   16.4240 C   0  0  0  0  0  0  0  0  0  0  0  0
   28.8830   15.4530   17.5640 C   0  0  0  0  0  0  0  0  0  0  0  0
   28.6850   14.6200   18.6580 C   0  0  0  0  0  0  0  0  0  0  0  0
   29.1020   13.2960   18.6070 C   0  0  0  0  0  0  0  0  0  0  0  0
   29.7170   12.8040   17.4580 C   0  0  0  0  0  0  0  0  0  0  0  0
   29.9120   13.6370   16.3670 C   0  0  0  0  0  0  0  0  0  0  0  0
   29.7390   15.8900   15.2570 C   0  0  0  0  0  0  0  0  0  0  0  0
   29.0950   15.4330   13.9710 C   0  0  0  0  0  0  0  0  0  0  0  0
   29.9900   14.9120   12.9550 N   0  0  0  0  0  0  0  0  0  0  0  0
  2  1  2  0
  6  1  1  0
  7  1  1  0
  3  2  1  0
  4  3  2  0
  5  4  1  0
  6  5  2  0
  8  7  1  0
  9  8  1  0
M  CHG  1   9   1
A    1
C1'
A    2
C6'
A    3
C5'
A    4
C4'
A    5
C3'
A    6
C2'
A    7
C2
A    8
C1
A    9
N
M  END
>  <Id>  (141) 
1TNJ_PEA_A_900

>  <ChainId>  (141) 
A

>  <AsymId>  (141) 
C

>  <SeqNum>  (141) 
900

>  <Name>  (141) 
2-PHENYLETHYLAMINE

>  <SystematicName>  (141) 
phenethylazanium

>  <Synonyms>  (141) 


>  <Type>  (141) 
NON-POLYMER

>  <Formula>  (141) 
C8 H12 N

>  <ObservedFormula>  (141) 
C8 N

>  <MolecularWeight>  (141) 
122.188

>  <ModifiedDate>  (141) 
2011-06-04

>  <Parent>  (141) 


>  <OneLetterCode>  (141) 


>  <SubcomponentList>  (141) 


>  <AmbiguousFlag>  (141) 
N

>  <InsertionCode>  (141) 


>  <InstanceId>  (141) 
1TNJ_PEA_A_900

>  <ChemCompId>  (141) 
PEA

>  <PdbId>  (141) 
1TNJ

>  <ResidueNumber>  (141) 
900

>  <InChI>  (141) 
InChI=1S/C8H11N/c9-7-6-8-4-2-1-3-5-8/h1-5H,6-7,9H2/p+1

>  <InChIKey>  (141) 
BHHGXPLMPWCGHP-UHFFFAOYSA-O

>  <SMILES>  (141) 
c1ccc(cc1)CC[NH3+]

>  <MissingHeavyAtoms>  (141) 
0

>  <Model>  (141) 
1

>  <AltIds>  (141) 


>  <pKI>  (141) 
1.96

>  <ChemblID>  (141) 
-

>  <standardized_canonical_smiles>  (141) 
[NH3+]CCc1ccccc1

$$$$
1TNK_PRA_A_900
     RDKit          3D

 10 10  0  0  0  0  0  0  0  0999 V2000
   29.1850   15.9530   14.3410 C   0  0  0  0  0  0  0  0  0  0  0  0
   29.7360   15.8910   15.7220 C   0  0  0  0  0  0  0  0  0  0  0  0
   29.3620   14.5200   16.1610 C   0  0  0  0  0  0  0  0  0  0  0  0
   29.3740   14.3520   17.6500 C   0  0  0  0  0  0  0  0  0  0  0  0
   29.7500   13.1000   18.1070 C   0  0  0  0  0  0  0  0  0  0  0  0
   29.2170   12.6100   19.2830 C   0  0  0  0  0  0  0  0  0  0  0  0
   28.3150   13.3710   20.0020 C   0  0  0  0  0  0  0  0  0  0  0  0
   27.9480   14.6290   19.5470 C   0  0  0  0  0  0  0  0  0  0  0  0
   28.4780   15.1240   18.3700 C   0  0  0  0  0  0  0  0  0  0  0  0
   29.7690   15.0690   13.3340 N   0  0  0  0  0  0  0  0  0  0  0  0
  2  1  1  0
 10  1  1  0
  3  2  1  0
  4  3  1  0
  5  4  2  0
  9  4  1  0
  6  5  1  0
  7  6  2  0
  8  7  1  0
  9  8  2  0
M  CHG  1  10   1
A    1
C1
A    2
C2
A    3
C3
A    4
C1'
A    5
C2'
A    6
C3'
A    7
C4'
A    8
C5'
A    9
C6'
A   10
N
M  END
>  <Id>  (142) 
1TNK_PRA_A_900

>  <ChainId>  (142) 
A

>  <AsymId>  (142) 
C

>  <SeqNum>  (142) 
900

>  <Name>  (142) 
3-PHENYLPROPYLAMINE

>  <SystematicName>  (142) 
3-phenylpropylazanium

>  <Synonyms>  (142) 


>  <Type>  (142) 
NON-POLYMER

>  <Formula>  (142) 
C9 H14 N

>  <ObservedFormula>  (142) 
C9 N

>  <MolecularWeight>  (142) 
136.214

>  <ModifiedDate>  (142) 
2011-06-04

>  <Parent>  (142) 


>  <OneLetterCode>  (142) 


>  <SubcomponentList>  (142) 


>  <AmbiguousFlag>  (142) 
N

>  <InsertionCode>  (142) 


>  <InstanceId>  (142) 
1TNK_PRA_A_900

>  <ChemCompId>  (142) 
PRA

>  <PdbId>  (142) 
1TNK

>  <ResidueNumber>  (142) 
900

>  <InChI>  (142) 
InChI=1S/C9H13N/c10-8-4-7-9-5-2-1-3-6-9/h1-3,5-6H,4,7-8,10H2/p+1

>  <InChIKey>  (142) 
LYUQWQRTDLVQGA-UHFFFAOYSA-O

>  <SMILES>  (142) 
c1ccc(cc1)CCC[NH3+]

>  <MissingHeavyAtoms>  (142) 
0

>  <Model>  (142) 
1

>  <AltIds>  (142) 


>  <pKI>  (142) 
1.49

>  <ChemblID>  (142) 
-

>  <standardized_canonical_smiles>  (142) 
[NH3+]CCCc1ccccc1

$$$$
1TYN_CTA_A_246
     RDKit          3D

 53 56  0  0  0  0  0  0  0  0999 V2000
   88.3710  -12.1300   56.0280 N   0  0  0  0  0  0  0  0  0  0  0  0
   90.6510   -9.7720   53.9050 N   0  0  0  0  0  0  0  0  0  0  0  0
   94.3920   -8.5970   57.9290 C   0  0  0  0  0  0  0  0  0  0  0  0
   91.6490  -15.1240   60.4610 C   0  0  0  0  0  0  0  0  0  0  0  0
   87.0170  -10.3300   54.5180 O   0  0  0  0  0  0  0  0  0  0  0  0
   89.4220   -2.9190   52.9490 N   0  0  0  0  0  0  0  0  0  0  0  0
   93.5660   -7.7830   55.0240 O   0  0  0  0  0  0  0  0  0  0  0  0
   90.6920   -2.3580   54.7890 N   0  0  0  0  0  0  0  0  0  0  0  0
   96.9570   -7.0180   57.2290 C   0  0  0  0  0  0  0  0  0  0  0  0
   88.6130  -13.3610   56.7710 C   0  0  0  0  0  0  0  0  0  0  0  0
   91.6580  -10.0950   54.7080 C   0  0  0  0  0  0  0  0  0  0  0  0
   91.5410  -10.2060   55.9360 O   0  0  0  0  0  0  0  0  0  0  0  0
   88.3430  -10.6100   54.1940 C   0  0  0  0  0  0  0  0  0  0  0  0
   90.0500   -3.2700   54.0660 C   0  0  0  0  0  0  0  0  0  0  0  0
   88.0640  -12.3030   58.8510 O   0  0  0  0  0  0  0  0  0  0  0  0
   89.7140  -12.6520   54.2990 O   0  0  0  0  0  0  0  0  0  0  0  0
   95.0890  -11.1010   55.1330 C   0  0  0  0  0  0  0  0  0  0  0  0
   88.8830   -8.1050   53.8360 C   0  0  0  0  0  0  0  0  0  0  0  0
   88.8800  -12.9780   58.2240 C   0  0  0  0  0  0  0  0  0  0  0  0
   91.7300  -12.1370   59.9490 C   0  0  0  0  0  0  0  0  0  0  0  0
   93.4330   -9.6970   57.9450 N   0  0  0  0  0  0  0  0  0  0  0  0
   93.2370  -11.8090   53.7780 C   0  0  0  0  0  0  0  0  0  0  0  0
   90.4580  -12.9230   60.0650 C   0  0  0  0  0  0  0  0  0  0  0  0
   88.0090  -18.1910   58.2680 C   0  0  0  0  0  0  0  0  0  0  0  0
   90.6480  -14.1270   60.9980 C   0  0  0  0  0  0  0  0  0  0  0  0
   87.3780  -14.2590   56.6850 C   0  0  0  0  0  0  0  0  0  0  0  0
   95.1840   -8.5840   56.6170 C   0  0  0  0  0  0  0  0  0  0  0  0
   97.3750   -7.7310   58.1500 O   0  0  0  0  0  0  0  0  0  0  0  0
   92.1090  -17.0400   59.0990 C   0  0  0  0  0  0  0  0  0  0  0  0
   93.0000  -10.3320   54.0280 C   0  0  0  0  0  0  0  0  0  0  0  0
   90.0390  -13.3620   58.7390 N   0  0  0  0  0  0  0  0  0  0  0  0
   93.8850  -10.4570   60.0040 O   0  0  0  0  0  0  0  0  0  0  0  0
   94.2980  -17.7620   58.9100 O   0  0  0  0  0  0  0  0  0  0  0  0
   93.1750  -10.4510   59.0030 C   0  0  0  0  0  0  0  0  0  0  0  0
   90.0250   -4.5320   54.4700 N   0  0  0  0  0  0  0  0  0  0  0  0
   94.2310  -12.2970   54.7820 C   0  0  0  0  0  0  0  0  0  0  0  0
   87.6160  -15.6440   57.2530 C   0  0  0  0  0  0  0  0  0  0  0  0
   89.6420   -6.9410   54.4410 C   0  0  0  0  0  0  0  0  0  0  0  0
   94.1210   -9.9700   54.9060 N   0  0  0  0  0  0  0  0  0  0  0  0
   88.8880  -11.9110   54.8270 C   0  0  0  0  0  0  0  0  0  0  0  0
   93.4460  -16.9130   59.4130 C   0  0  0  0  0  0  0  0  0  0  0  0
   88.4520  -16.5300   56.5900 C   0  0  0  0  0  0  0  0  0  0  0  0
   92.9890  -15.0050   60.7750 C   0  0  0  0  0  0  0  0  0  0  0  0
   95.9120   -7.3310   56.4670 N   0  0  0  0  0  0  0  0  0  0  0  0
   93.8960  -15.9050   60.2470 C   0  0  0  0  0  0  0  0  0  0  0  0
   94.2290   -8.7450   55.4410 C   0  0  0  0  0  0  0  0  0  0  0  0
   88.6490  -17.8050   57.1010 C   0  0  0  0  0  0  0  0  0  0  0  0
   86.9760  -16.0280   58.4220 C   0  0  0  0  0  0  0  0  0  0  0  0
   87.1750  -17.3020   58.9270 C   0  0  0  0  0  0  0  0  0  0  0  0
   89.3550   -5.6200   53.7610 C   0  0  0  0  0  0  0  0  0  0  0  0
   89.3300   -9.4490   54.4200 C   0  0  0  0  0  0  0  0  0  0  0  0
   91.9840  -11.3020   58.9380 C   0  0  0  0  0  0  0  0  0  0  0  0
   91.2110  -16.1370   59.6300 C   0  0  0  0  0  0  0  0  0  0  0  0
 10 26  1  0
 29 41  2  0
 34 32  2  0
 37 42  1  0
 46  7  2  0
 24 49  2  0
 51  2  1  0
  4 43  1  0
 39 46  1  0
 38 50  1  0
 41 45  1  0
 30 39  1  0
 19 15  2  0
 42 47  2  0
 45 43  2  0
 13 51  1  0
 31 19  1  0
 49 48  1  0
 34 52  1  0
 27 44  1  0
 17 39  1  0
 10  1  1  0
 41 33  1  0
 40 13  1  0
 50 35  1  0
 14  6  1  0
 18 38  1  0
  2 11  1  0
 51 18  1  0
 25  4  1  0
  4 53  2  0
 30 22  1  0
 26 37  1  0
 22 36  1  0
 23 25  1  0
 52 20  2  0
  3 21  1  0
 46 27  1  0
 37 48  2  0
 53 29  1  0
 40 16  2  0
  1 40  1  0
 14  8  2  0
 19 10  1  0
 11 30  1  0
 13  5  2  0
 20 23  1  0
 36 17  1  0
  9 28  2  0
 34 21  1  0
 23 31  1  0
 47 24  1  0
 11 12  2  0
 35 14  1  0
 27  3  1  0
 44  9  1  0
A    1
N8
A    2
N12
A    3
C21
A    4
C25
A    5
O41
A    6
N47
A    7
O50
A    8
N48
A    9
C52
A   10
C7
A   11
C13
A   12
O49
A   13
C10
A   14
C46
A   15
O32
A   16
O40
A   17
C17
A   18
C42
A   19
C6
A   20
C3
A   21
N22
A   22
C15
A   23
C4
A   24
C37
A   25
C24
A   26
C33
A   27
C20
A   28
O53
A   29
C27
A   30
C14
A   31
N5
A   32
O23
A   33
O31
A   34
C1
A   35
N45
A   36
C16
A   37
C34
A   38
C43
A   39
N18
A   40
C9
A   41
C28
A   42
C35
A   43
C30
A   44
N51
A   45
C29
A   46
C19
A   47
C36
A   48
C39
A   49
C38
A   50
C44
A   51
C11
A   52
C2
A   53
C26
M  END
>  <InstanceId>  (143) 
1TYN_CTA_A_246

>  <ChemCompId>  (143) 
CTA

>  <PdbId>  (143) 
1TYN

>  <ChainId>  (143) 
A

>  <ResidueNumber>  (143) 
246

>  <InsertionCode>  (143) 


>  <Model>  (143) 
1

>  <AltIds>  (143) 


>  <MissingHeavyAtoms>  (143) 
0

>  <ObservedFormula>  (143) 
C36 N9 O8

>  <AsymId>  (143) 
B

>  <SeqNum>  (143) 
246

>  <Name>  (143) 
CYCLOTHEONAMIDE A

>  <SystematicName>  (143) 
N-[(3S,7E,9S,12R,16S,19S)-16-(3-carbamimidamidopropyl)-9-[(4-hydroxyphenyl)methyl]-2,6,11,14,15,18-hexaoxo-12-(phenylmethyl)-1,5,10,13,17-pentazabicyclo[17.3.0]docos-7-en-3-yl]methanamide

>  <Synonyms>  (143) 


>  <Type>  (143) 
NON-POLYMER

>  <Formula>  (143) 
C36 H45 N9 O8

>  <MolecularWeight>  (143) 
731.798

>  <ModifiedDate>  (143) 
2011-06-04

>  <Parent>  (143) 


>  <OneLetterCode>  (143) 


>  <SubcomponentList>  (143) 


>  <AmbiguousFlag>  (143) 
N

>  <InChI>  (143) 
null

>  <InChIKey>  (143) 
null

>  <SMILES>  (143) 
c1ccc(cc1)C[C@@H]2C(=O)N[C@H](\C=C\C(=O)NC[C@@H](C(=O)N3CCC[C@H]3C(=O)N[C@H](C(=O)C(=O)N2)CCCNC(=N)N)NC=O)Cc4ccc(cc4)O

>  <pKI>  (143) 
9.7

>  <ChemblID>  (143) 
-

>  <standardized_canonical_smiles>  (143) 
N=C(N)NCCC[C@@H]1NC(=O)[C@@H]2CCCN2C(=O)[C@@H](NC=O)CNC(=O)/C=C/[C@H](Cc2ccc(O)cc2)NC(=O)[C@@H](Cc2ccccc2)NC(=O)C1=O

$$$$
1MTW_DX9_A_999
     RDKit          3D

 33 36  0  0  0  0  0  0  0  0999 V2000
   29.1290   11.4250   15.9630 C   0  0  0  0  0  0  0  0  0  0  0  0
   28.8110   10.6450   17.0780 C   0  0  0  0  0  0  0  0  0  0  0  0
   28.3350   11.2370   18.2700 C   0  0  0  0  0  0  0  0  0  0  0  0
   28.1740   12.6380   18.3360 C   0  0  0  0  0  0  0  0  0  0  0  0
   28.4890   13.4200   17.2120 C   0  0  0  0  0  0  0  0  0  0  0  0
   28.3420   14.8070   17.2320 C   0  0  0  0  0  0  0  0  0  0  0  0
   28.6700   15.5540   16.0850 C   0  0  0  0  0  0  0  0  0  0  0  0
   29.1590   14.9250   14.9110 C   0  0  0  0  0  0  0  0  0  0  0  0
   29.2930   13.5430   14.8900 C   0  0  0  0  0  0  0  0  0  0  0  0
   28.9740   12.8030   16.0210 C   0  0  0  0  0  0  0  0  0  0  0  0
   29.5010   15.7310   13.6910 C   0  0  0  0  0  0  0  0  0  0  0  0
   28.9960   17.0900   13.6140 N   0  0  0  0  0  0  0  0  0  0  0  0
   30.1770   15.1780   12.7650 N   0  0  0  0  0  0  0  0  0  0  0  0
   29.0130    9.1480   16.9340 C   0  0  0  0  0  0  0  0  0  0  0  0
   28.0140    6.8790   17.4520 C   0  0  0  0  0  0  0  0  0  0  0  0
   27.6190    6.2270   18.4150 O   0  0  0  0  0  0  0  0  0  0  0  0
   28.6210    6.2620   16.5880 O   0  0  0  0  0  0  0  0  0  0  0  0
   27.7540    8.3360   17.3380 C   0  0  0  0  0  0  0  0  0  0  0  0
   21.9360    7.1010   11.9800 N   0  0  0  0  0  0  0  0  0  0  0  0
   21.9280    6.9890   13.4310 C   0  0  0  0  0  0  0  0  0  0  0  0
   21.9820    8.4810   13.8330 C   0  0  0  0  0  0  0  0  0  0  0  0
   21.0260    9.0990   12.7970 C   0  0  0  0  0  0  0  0  0  0  0  0
   21.5120    8.4190   11.4890 C   0  0  0  0  0  0  0  0  0  0  0  0
   22.2830    6.0930   11.2050 C   0  0  0  0  0  0  0  0  0  0  0  0
   22.2530    6.1890    9.9300 N   0  0  0  0  0  0  0  0  0  0  0  0
   22.7350    4.7550   11.8050 C   0  0  0  0  0  0  0  0  0  0  0  0
   25.0330    8.2720   17.0890 C   0  0  0  0  0  0  0  0  0  0  0  0
   24.0060    8.4440   16.2600 C   0  0  0  0  0  0  0  0  0  0  0  0
   26.6970    8.8470   15.0930 C   0  0  0  0  0  0  0  0  0  0  0  0
   25.5950    9.0090   14.2620 C   0  0  0  0  0  0  0  0  0  0  0  0
   24.2920    8.8250   14.7840 C   0  0  0  0  0  0  0  0  0  0  0  0
   23.3160    9.0370   13.8050 O   0  0  0  0  0  0  0  0  0  0  0  0
   26.4880    8.4970   16.4490 C   0  0  0  0  0  0  0  0  0  0  0  0
  2  1  2  0
 10  1  1  0
  3  2  1  0
 14  2  1  0
  4  3  2  0
  5  4  1  0
  6  5  1  0
 10  5  2  0
  7  6  2  0
  8  7  1  0
  9  8  2  0
 11  8  1  0
 10  9  1  0
 12 11  2  0
 13 11  1  0
 18 14  1  0
 16 15  2  0
 17 15  1  0
 18 15  1  0
 33 18  1  0
 20 19  1  0
 23 19  1  0
 24 19  1  0
 21 20  1  0
 22 21  1  0
 32 21  1  0
 23 22  1  0
 25 24  2  0
 26 24  1  0
 28 27  2  0
 33 27  1  0
 31 28  1  0
 30 29  1  0
 33 29  2  0
 31 30  2  0
 32 31  1  0
A    1
C12
A    2
C13
A    3
C11
A    4
C10
A    5
C7
A    6
C6
A    7
C5
A    8
C4
A    9
C9
A   10
C8
A   11
C2
A   12
N2
A   13
N1
A   14
C14
A   15
C22
A   16
O23
A   17
O24
A   18
C15
A   19
N28
A   20
C27
A   21
C26
A   22
C30
A   23
C29
A   24
C31
A   25
N32
A   26
C33
A   27
C21
A   28
C20
A   29
C17
A   30
C18
A   31
C19
A   32
O25
A   33
C16
M  END
>  <Id>  (144) 
1MTW_DX9_A_999

>  <ChainId>  (144) 
A

>  <AsymId>  (144) 
C

>  <SeqNum>  (144) 
999

>  <Name>  (144) 
(2S)-3-(7-carbamimidoylnaphthalen-2-yl)-2-[4-({(3R)-1-[(1Z)-ethanimidoyl]pyrrolidin-3-yl}oxy)phenyl]propanoic acid

>  <SystematicName>  (144) 
(2S)-3-(7-carbamimidoylnaphthalen-2-yl)-2-[4-[(3S)-1-ethanimidoylpyrrolidin-3-yl]oxyphenyl]propanoic acid

>  <Synonyms>  (144) 
DX9056A

>  <Type>  (144) 
NON-POLYMER

>  <Formula>  (144) 
C26 H28 N4 O3

>  <ObservedFormula>  (144) 
C26 N4 O3

>  <MolecularWeight>  (144) 
444.526

>  <ModifiedDate>  (144) 
2011-06-04

>  <Parent>  (144) 


>  <OneLetterCode>  (144) 


>  <SubcomponentList>  (144) 


>  <AmbiguousFlag>  (144) 
N

>  <InsertionCode>  (144) 


>  <InstanceId>  (144) 
1MTW_DX9_A_999

>  <ChemCompId>  (144) 
DX9

>  <PdbId>  (144) 
1MTW

>  <ResidueNumber>  (144) 
999

>  <InChI>  (144) 
InChI=1S/C26H28N4O3/c1-16(27)30-11-10-23(15-30)33-22-8-6-19(7-9-22)24(26(31)32)13-17-2-3-18-4-5-20(25(28)29)14-21(18)12-17/h2-9,12,14,23-24,27H,10-11,13,15H2,1H3,(H3,28,29)(H,31,32)/b27-16+/t23-,24-/m0/s1

>  <InChIKey>  (144) 
AGRCGQSFFMCBRE-DGUCVARSSA-N

>  <SMILES>  (144) 
[H]/N=C(\C)/N1CC[C@@H](C1)Oc2ccc(cc2)[C@H](Cc3ccc4ccc(cc4c3)/C(=N/[H])/N)C(=O)O

>  <MissingHeavyAtoms>  (144) 
0

>  <Model>  (144) 
1

>  <AltIds>  (144) 


>  <pKI>  (144) 
6.71

>  <ChemblID>  (144) 
-

>  <standardized_canonical_smiles>  (144) 
CC(=N)N1CC[C@H](Oc2ccc([C@H](Cc3ccc4ccc(C(=N)N)cc4c3)C(=O)O)cc2)C1

$$$$
