2OZ7_CA4_A_1
     RDKit          3D

 29 33  0  0  0  0  0  0  0  0999 V2000
   25.3710    5.4860    4.3600 C   0  0  0  0  0  0  0  0  0  0  0  0
   27.7990    0.4200    3.9100 C   0  0  0  0  0  0  0  0  0  0  0  0
   26.0230    4.2600    4.4340 C   0  0  0  0  0  0  0  0  0  0  0  0
   25.2610    3.1080    4.6110 C   0  0  0  0  0  0  0  0  0  0  0  0
   29.5410    2.7440    3.9590 C   0  0  0  0  0  0  0  0  0  0  0  0
   25.8560    1.8540    4.7240 C   0  0  0  0  0  0  0  0  0  0  0  0
   27.3760    1.6800    4.6680 C   0  0  0  0  0  0  0  0  0  0  0  0
   28.0150    2.8790    3.9640 C   0  0  0  0  0  0  0  0  0  0  0  0
   27.5410    4.1740    4.6230 C   0  0  0  0  0  0  0  0  0  0  0  0
   29.9710    1.4620    3.2380 C   0  0  0  0  0  0  0  0  0  0  0  0
   29.3160    0.2570    3.9150 C   0  0  0  0  0  0  0  0  0  0  0  0
   26.0480    6.6800    4.1380 C   0  0  0  0  0  0  0  0  0  0  0  0
   27.7830    4.1280    6.1340 C   0  0  0  0  0  0  0  0  0  0  0  0
   28.3140    5.3730    4.0650 C   0  0  0  0  0  0  0  0  0  0  0  0
   27.9610    5.8950    2.6730 C   0  0  0  0  0  0  0  0  0  0  0  0
   27.5610    6.6960    3.9160 C   0  0  0  0  0  0  0  0  0  0  0  0
   25.4290    7.7430    4.1380 O   0  0  0  0  0  0  0  0  0  0  0  0
   23.5410    3.2460    4.7440 Cl  0  0  0  0  0  0  0  0  0  0  0  0
   29.8460    0.1050    5.3430 C   0  0  0  0  0  0  0  0  0  0  0  0
   27.3500   -0.9240    4.4870 C   0  0  0  0  0  0  0  0  0  0  0  0
   28.3530   -1.9110    3.8730 C   0  0  0  0  0  0  0  0  0  0  0  0
   29.3940   -1.0580    3.1380 C   0  0  0  0  0  0  0  0  0  0  0  0
   30.7950   -1.6720    3.1960 C   0  0  0  0  0  0  0  0  0  0  0  0
   31.1210   -2.7110    4.2700 C   0  0  0  0  0  0  0  0  0  0  0  0
   31.6470   -1.3520    2.3680 O   0  0  0  0  0  0  0  0  0  0  0  0
   28.9720   -0.8100    1.7920 O   0  0  0  0  0  0  0  0  0  0  0  0
   29.0160   -1.9120    0.9930 C   0  0  0  0  0  0  0  0  0  0  0  0
   28.6380   -1.7700   -0.4820 C   0  0  0  0  0  0  0  0  0  0  0  0
   29.3700   -3.0040    1.4370 O   0  0  0  0  0  0  0  0  0  0  0  0
  3  1  2  0
 12  1  1  0
  7  2  1  0
 11  2  1  0
 20  2  1  0
  4  3  1  0
  9  3  1  0
  6  4  2  0
 18  4  1  0
  8  5  1  0
 10  5  1  0
  7  6  1  0
  8  7  1  0
  9  8  1  0
 13  9  1  0
 14  9  1  0
 11 10  1  0
 19 11  1  0
 22 11  1  0
 16 12  1  0
 17 12  2  0
 15 14  1  0
 16 14  1  0
 16 15  1  0
 21 20  1  0
 22 21  1  0
 23 22  1  0
 26 22  1  0
 24 23  1  0
 25 23  2  0
 27 26  1  0
 28 27  1  0
 29 27  2  0
A    1
C4
A    2
C14
A    3
C5
A    4
C6
A    5
C11
A    6
C7
A    7
C8
A    8
C9
A    9
C10
A   10
C12
A   11
C13
A   12
C3
A   13
C19
A   14
C1
A   15
C22
A   16
C2
A   17
O3
A   18
CL6
A   19
C18
A   20
C15
A   21
C16
A   22
C17
A   23
C20
A   24
C21
A   25
O20
A   26
O17
A   27
C23
A   28
C24
A   29
O23
M  END
>  <Id>  (1) 
2OZ7_CA4_A_1

>  <ChainId>  (1) 
A

>  <AsymId>  (1) 
B

>  <SeqNum>  (1) 
1

>  <Name>  (1) 
CYPROTERONE ACETATE

>  <SystematicName>  (1) 
null

>  <Synonyms>  (1) 


>  <Type>  (1) 
NON-POLYMER

>  <Formula>  (1) 
C24 H29 Cl O4

>  <ObservedFormula>  (1) 
C24 Cl O4

>  <MolecularWeight>  (1) 
416.938

>  <ModifiedDate>  (1) 
2011-06-04

>  <Parent>  (1) 


>  <OneLetterCode>  (1) 


>  <SubcomponentList>  (1) 


>  <AmbiguousFlag>  (1) 


>  <InsertionCode>  (1) 


>  <InstanceId>  (1) 
2OZ7_CA4_A_1

>  <ChemCompId>  (1) 
CA4

>  <PdbId>  (1) 
2OZ7

>  <ResidueNumber>  (1) 
1

>  <InChI>  (1) 
InChI=1S/C24H29ClO4/c1-12(26)24(29-13(2)27)8-6-16-14-10-20(25)19-11-21(28)15-9-18(15)23(19,4)17(14)5-7-22(16,24)3/h10-11,14-18H,5-9H2,1-4H3/t14-,15+,16-,17-,18-,22-,23-,24-/m0/s1

>  <InChIKey>  (1) 
UWFYSQMTEOIJJG-FDTZYFLXSA-N

>  <SMILES>  (1) 
CC(=O)[C@]1(CC[C@@H]2[C@@]1(CC[C@H]3[C@H]2C=C(C4=CC(=O)[C@@H]5C[C@@H]5[C@]34C)Cl)C)OC(=O)C

>  <MissingHeavyAtoms>  (1) 
0

>  <Model>  (1) 
1

>  <AltIds>  (1) 


>  <pKI>  (1) 
7.85

>  <ChemblID>  (1) 
CHEMBL139835

>  <standardized_canonical_smiles>  (1) 
CC(=O)O[C@]1(C(C)=O)CC[C@H]2[C@@H]3C=C(Cl)C4=CC(=O)[C@@H]5C[C@@H]5[C@]4(C)[C@H]3CC[C@@]21C

$$$$
2AX9_BHM_A_1
     RDKit          3D

 21 21  0  0  0  0  0  0  0  0999 V2000
   30.7480    1.5620    6.2840 Br  0  0  0  0  0  0  0  0  0  0  0  0
   30.2680    0.0440    5.1690 C   0  0  0  0  0  0  0  0  0  0  0  0
   29.7970    0.5240    3.7940 C   0  0  0  0  0  0  0  0  0  0  0  0
   30.8330    1.3130    3.2020 O   0  0  0  0  0  0  0  0  0  0  0  0
   29.4750   -0.6770    2.9030 C   0  0  0  0  0  0  0  0  0  0  0  0
   28.5410    1.3860    3.9430 C   0  0  0  0  0  0  0  0  0  0  0  0
   27.4770    0.8860    4.3090 O   0  0  0  0  0  0  0  0  0  0  0  0
   28.7280    2.6800    3.6910 N   0  0  0  0  0  0  0  0  0  0  0  0
   27.7870    3.6220    3.7460 C   0  0  0  0  0  0  0  0  0  0  0  0
   26.4540    3.3450    4.0380 C   0  0  0  0  0  0  0  0  0  0  0  0
   28.1540    4.9350    3.4700 C   0  0  0  0  0  0  0  0  0  0  0  0
   27.1930    5.9390    3.5080 C   0  0  0  0  0  0  0  0  0  0  0  0
   25.8650    5.6570    3.8170 C   0  0  0  0  0  0  0  0  0  0  0  0
   25.0390    6.7030    3.8740 N   0  0  0  0  0  0  0  0  0  0  0  0
   23.6970    6.6110    4.3290 O   0  0  0  0  0  0  0  0  0  0  0  0
   25.5390    8.0010    3.5840 O   0  0  0  0  0  0  0  0  0  0  0  0
   25.4740    4.3390    4.0700 C   0  0  0  0  0  0  0  0  0  0  0  0
   24.0080    3.9230    4.2900 C   0  0  0  0  0  0  0  0  0  0  0  0
   23.6120    4.2800    5.5080 F   0  0  0  0  0  0  0  0  0  0  0  0
   23.1820    4.4620    3.3970 F   0  0  0  0  0  0  0  0  0  0  0  0
   23.8340    2.6090    4.1820 F   0  0  0  0  0  0  0  0  0  0  0  0
  2  1  1  0
  3  2  1  0
  4  3  1  0
  5  3  1  0
  6  3  1  0
  7  6  2  0
  8  6  1  0
  9  8  1  0
 10  9  2  0
 11  9  1  0
 17 10  1  0
 12 11  2  0
 13 12  1  0
 14 13  1  0
 17 13  2  0
 15 14  2  0
 16 14  1  0
 18 17  1  0
 19 18  1  0
 20 18  1  0
 21 18  1  0
M  CHG  2  14   1  16  -1
A    1
BRAI
A    2
C13
A    3
C11
A    4
O11
A    5
C12
A    6
C10
A    7
O10
A    8
N09
A    9
C06
A   10
C05
A   11
C01
A   12
C02
A   13
C03
A   14
N08
A   15
O02
A   16
O01
A   17
C04
A   18
C07
A   19
F01
A   20
F02
A   21
F03
M  END
>  <Id>  (2) 
2AX9_BHM_A_1

>  <ChainId>  (2) 
A

>  <AsymId>  (2) 
B

>  <SeqNum>  (2) 
1

>  <Name>  (2) 
(R)-3-BROMO-2-HYDROXY-2-METHYL-N-[4-NITRO-3-(TRIFLUOROMETHYL)PHENYL]PROPANAMIDE

>  <SystematicName>  (2) 
(2R)-3-bromo-2-hydroxy-2-methyl-N-[4-nitro-3-(trifluoromethyl)phenyl]propanamide

>  <Synonyms>  (2) 


>  <Type>  (2) 
NON-POLYMER

>  <Formula>  (2) 
C11 H10 Br F3 N2 O4

>  <ObservedFormula>  (2) 
Br C11 F3 N2 O4

>  <MolecularWeight>  (2) 
371.107

>  <ModifiedDate>  (2) 
2011-06-04

>  <Parent>  (2) 


>  <OneLetterCode>  (2) 


>  <SubcomponentList>  (2) 


>  <AmbiguousFlag>  (2) 
N

>  <InsertionCode>  (2) 


>  <InstanceId>  (2) 
2AX9_BHM_A_1

>  <ChemCompId>  (2) 
BHM

>  <PdbId>  (2) 
2AX9

>  <ResidueNumber>  (2) 
1

>  <InChI>  (2) 
InChI=1S/C11H10BrF3N2O4/c1-10(19,5-12)9(18)16-6-2-3-8(17(20)21)7(4-6)11(13,14)15/h2-4,19H,5H2,1H3,(H,16,18)/t10-/m0/s1

>  <InChIKey>  (2) 
QDSWNDMHSBZXKX-JTQLQIEISA-N

>  <SMILES>  (2) 
C[C@](CBr)(C(=O)Nc1ccc(c(c1)C(F)(F)F)[N+](=O)[O-])O

>  <MissingHeavyAtoms>  (2) 
0

>  <Model>  (2) 
1

>  <AltIds>  (2) 


>  <pKI>  (2) 
9.52

>  <ChemblID>  (2) 
CHEMBL296323

>  <standardized_canonical_smiles>  (2) 
C[C@](O)(CBr)C(=O)Nc1ccc([N+](=O)[O-])c(C(F)(F)F)c1

$$$$
2Q7K_TES_A_304
     RDKit          3D

 21 24  0  0  0  0  0  0  0  0999 V2000
   24.7980    2.4500    4.5400 C   0  0  0  0  0  0  0  0  0  0  0  0
   30.8500   -1.8630    3.9060 O   0  0  0  0  0  0  0  0  0  0  0  0
   28.4990   -2.1190    3.2490 C   0  0  0  0  0  0  0  0  0  0  0  0
   25.5520    3.7560    4.5490 C   0  0  0  0  0  0  0  0  0  0  0  0
   25.5980    1.3730    3.8350 C   0  0  0  0  0  0  0  0  0  0  0  0
   27.7190    5.0370    4.3680 C   0  0  0  0  0  0  0  0  0  0  0  0
   29.1980    2.3970    4.8330 C   0  0  0  0  0  0  0  0  0  0  0  0
   26.9940    1.2290    4.4360 C   0  0  0  0  0  0  0  0  0  0  0  0
   27.2670   -1.3140    3.6960 C   0  0  0  0  0  0  0  0  0  0  0  0
   24.8540    4.8660    4.2720 C   0  0  0  0  0  0  0  0  0  0  0  0
   27.7640    2.5480    4.3140 C   0  0  0  0  0  0  0  0  0  0  0  0
   25.5040    6.1850    4.2570 C   0  0  0  0  0  0  0  0  0  0  0  0
   27.7940    0.1210    3.7330 C   0  0  0  0  0  0  0  0  0  0  0  0
   24.8890    7.1710    3.8720 O   0  0  0  0  0  0  0  0  0  0  0  0
   29.9520    1.2710    4.1300 C   0  0  0  0  0  0  0  0  0  0  0  0
   26.9410    6.3070    4.6850 C   0  0  0  0  0  0  0  0  0  0  0  0
   27.0330    3.7720    4.9140 C   0  0  0  0  0  0  0  0  0  0  0  0
   29.7100   -1.1810    3.3800 C   0  0  0  0  0  0  0  0  0  0  0  0
   27.0800    3.7880    6.4450 C   0  0  0  0  0  0  0  0  0  0  0  0
   29.2090   -0.0490    4.2730 C   0  0  0  0  0  0  0  0  0  0  0  0
   29.2330   -0.5170    5.7320 C   0  0  0  0  0  0  0  0  0  0  0  0
 12 10  1  0
  6 16  1  0
  9  3  1  0
  5  8  1  0
 16 12  1  0
  4 17  1  0
  7 15  1  0
  4  1  1  0
 20 21  1  0
 11 17  1  0
 20 13  1  0
  3 18  1  0
  8 13  1  0
 13  9  1  0
  8 11  1  0
 17 19  1  0
 18  2  1  0
 10  4  2  0
  6 17  1  0
  1  5  1  0
 15 20  1  0
 20 18  1  0
 12 14  2  0
 11  7  1  0
A    1
C6
A    2
O17
A    3
C16
A    4
C5
A    5
C7
A    6
C1
A    7
C11
A    8
C8
A    9
C15
A   10
C4
A   11
C9
A   12
C3
A   13
C14
A   14
O3
A   15
C12
A   16
C2
A   17
C10
A   18
C17
A   19
C19
A   20
C13
A   21
C18
M  END
>  <InstanceId>  (3) 
2Q7K_TES_A_304

>  <ChemCompId>  (3) 
TES

>  <PdbId>  (3) 
2Q7K

>  <ChainId>  (3) 
A

>  <ResidueNumber>  (3) 
304

>  <InsertionCode>  (3) 


>  <Model>  (3) 
1

>  <AltIds>  (3) 


>  <MissingHeavyAtoms>  (3) 
0

>  <ObservedFormula>  (3) 
C19 O2

>  <AsymId>  (3) 
E

>  <SeqNum>  (3) 
304

>  <Name>  (3) 
TESTOSTERONE

>  <SystematicName>  (3) 
(8R,9S,10R,13S,14S,17S)-17-hydroxy-10,13-dimethyl-1,2,6,7,8,9,11,12,14,15,16,17-dodecahydrocyclopenta[a]phenanthren-3-one

>  <Synonyms>  (3) 


>  <Type>  (3) 
NON-POLYMER

>  <Formula>  (3) 
C19 H28 O2

>  <MolecularWeight>  (3) 
288.424

>  <ModifiedDate>  (3) 
2011-06-04

>  <Parent>  (3) 


>  <OneLetterCode>  (3) 


>  <SubcomponentList>  (3) 


>  <AmbiguousFlag>  (3) 
N

>  <InChI>  (3) 
null

>  <InChIKey>  (3) 
null

>  <SMILES>  (3) 
C[C@]12CC[C@H]3[C@H]([C@@H]1CC[C@@H]2O)CCC4=CC(=O)CC[C@]34C

>  <pKI>  (3) 
7.54

>  <ChemblID>  (3) 
CHEMBL386630

>  <standardized_canonical_smiles>  (3) 
C[C@]12CC[C@H]3[C@@H](CCC4=CC(=O)CC[C@@]43C)[C@@H]1CC[C@@H]2O

$$$$
4HLW_TES_A_1001
     RDKit          3D

 21 24  0  0  0  0  0  0  0  0999 V2000
   27.2210    4.8620    5.1540 C   0  0  0  0  0  0  0  0  0  0  0  0
   26.4510    6.0490    5.5940 C   0  0  0  0  0  0  0  0  0  0  0  0
   25.0590    5.9240    5.0920 C   0  0  0  0  0  0  0  0  0  0  0  0
   24.4570    6.9170    4.7240 O   0  0  0  0  0  0  0  0  0  0  0  0
   24.3940    4.5810    5.0630 C   0  0  0  0  0  0  0  0  0  0  0  0
   25.1240    3.4400    5.3150 C   0  0  0  0  0  0  0  0  0  0  0  0
   24.4400    2.0410    5.2860 C   0  0  0  0  0  0  0  0  0  0  0  0
   25.3610    1.1290    4.4810 C   0  0  0  0  0  0  0  0  0  0  0  0
   26.7570    1.1300    5.0660 C   0  0  0  0  0  0  0  0  0  0  0  0
   27.3370    2.5150    4.9940 C   0  0  0  0  0  0  0  0  0  0  0  0
   26.6590    3.5190    5.6430 C   0  0  0  0  0  0  0  0  0  0  0  0
   28.9530    2.3630    5.5990 C   0  0  0  0  0  0  0  0  0  0  0  0
   29.6860    1.1200    4.7310 C   0  0  0  0  0  0  0  0  0  0  0  0
   28.8560   -0.0240    4.8430 C   0  0  0  0  0  0  0  0  0  0  0  0
   27.5750    0.2370    4.3060 C   0  0  0  0  0  0  0  0  0  0  0  0
   26.9240   -1.1980    4.2040 C   0  0  0  0  0  0  0  0  0  0  0  0
   28.2230   -2.0880    3.7640 C   0  0  0  0  0  0  0  0  0  0  0  0
   29.3990   -1.1430    3.9730 C   0  0  0  0  0  0  0  0  0  0  0  0
   30.4560   -1.7970    4.5090 O   0  0  0  0  0  0  0  0  0  0  0  0
   28.7770   -0.5110    6.2610 C   0  0  0  0  0  0  0  0  0  0  0  0
   26.8450    3.4670    7.1170 C   0  0  0  0  0  0  0  0  0  0  0  0
  2  1  1  0
 11  1  1  0
  3  2  1  0
  4  3  2  0
  5  3  1  0
  6  5  2  0
  7  6  1  0
 11  6  1  0
  8  7  1  0
  9  8  1  0
 10  9  1  0
 15  9  1  0
 11 10  1  0
 12 10  1  0
 21 11  1  0
 13 12  1  0
 14 13  1  0
 15 14  1  0
 18 14  1  0
 20 14  1  0
 16 15  1  0
 17 16  1  0
 18 17  1  0
 19 18  1  0
A    1
C1
A    2
C2
A    3
C3
A    4
O3
A    5
C4
A    6
C5
A    7
C6
A    8
C7
A    9
C8
A   10
C9
A   11
C10
A   12
C11
A   13
C12
A   14
C13
A   15
C14
A   16
C15
A   17
C16
A   18
C17
A   19
O17
A   20
C18
A   21
C19
M  END
>  <Id>  (4) 
4HLW_TES_A_1001

>  <ChainId>  (4) 
A

>  <AsymId>  (4) 
B

>  <SeqNum>  (4) 
1001

>  <Name>  (4) 
TESTOSTERONE

>  <SystematicName>  (4) 
(8R,9S,10R,13S,14S,17S)-17-hydroxy-10,13-dimethyl-1,2,6,7,8,9,11,12,14,15,16,17-dodecahydrocyclopenta[a]phenanthren-3-one

>  <Synonyms>  (4) 


>  <Type>  (4) 
NON-POLYMER

>  <Formula>  (4) 
C19 H28 O2

>  <ObservedFormula>  (4) 
C19 O2

>  <MolecularWeight>  (4) 
288.424

>  <ModifiedDate>  (4) 
2011-06-04

>  <Parent>  (4) 


>  <OneLetterCode>  (4) 


>  <SubcomponentList>  (4) 


>  <AmbiguousFlag>  (4) 
N

>  <InsertionCode>  (4) 


>  <InstanceId>  (4) 
4HLW_TES_A_1001

>  <ChemCompId>  (4) 
TES

>  <PdbId>  (4) 
4HLW

>  <ResidueNumber>  (4) 
1001

>  <InChI>  (4) 
InChI=1S/C19H28O2/c1-18-9-7-13(20)11-12(18)3-4-14-15-5-6-17(21)19(15,2)10-8-16(14)18/h11,14-17,21H,3-10H2,1-2H3/t14-,15-,16-,17-,18-,19-/m0/s1

>  <InChIKey>  (4) 
MUMGGOZAMZWBJJ-DYKIIFRCSA-N

>  <SMILES>  (4) 
C[C@]12CC[C@H]3[C@H]([C@@H]1CC[C@@H]2O)CCC4=CC(=O)CC[C@]34C

>  <MissingHeavyAtoms>  (4) 
0

>  <Model>  (4) 
1

>  <AltIds>  (4) 


>  <pKI>  (4) 
7.54

>  <ChemblID>  (4) 
CHEMBL386630

>  <standardized_canonical_smiles>  (4) 
C[C@]12CC[C@H]3[C@@H](CCC4=CC(=O)CC[C@@]43C)[C@@H]1CC[C@@H]2O

$$$$
3ZQT_TES_A_1000
     RDKit          3D

 21 24  0  0  0  0  0  0  0  0999 V2000
   27.0900    5.1670    5.0090 C   0  0  0  0  0  0  0  0  0  0  0  0
   26.3510    6.4490    5.3510 C   0  0  0  0  0  0  0  0  0  0  0  0
   24.8970    6.2620    4.9940 C   0  0  0  0  0  0  0  0  0  0  0  0
   24.2350    7.2160    4.6160 O   0  0  0  0  0  0  0  0  0  0  0  0
   24.2800    4.9160    5.0640 C   0  0  0  0  0  0  0  0  0  0  0  0
   25.0010    3.7990    5.2880 C   0  0  0  0  0  0  0  0  0  0  0  0
   24.2830    2.4540    5.2000 C   0  0  0  0  0  0  0  0  0  0  0  0
   25.1450    1.4620    4.4250 C   0  0  0  0  0  0  0  0  0  0  0  0
   26.5290    1.3400    5.0490 C   0  0  0  0  0  0  0  0  0  0  0  0
   27.2600    2.7050    5.0460 C   0  0  0  0  0  0  0  0  0  0  0  0
   26.4670    3.8920    5.6250 C   0  0  0  0  0  0  0  0  0  0  0  0
   28.6700    2.6130    5.6230 C   0  0  0  0  0  0  0  0  0  0  0  0
   29.4670    1.5900    4.7680 C   0  0  0  0  0  0  0  0  0  0  0  0
   28.8130    0.2090    4.8400 C   0  0  0  0  0  0  0  0  0  0  0  0
   27.3990    0.3440    4.2810 C   0  0  0  0  0  0  0  0  0  0  0  0
   26.8970   -1.1060    4.1740 C   0  0  0  0  0  0  0  0  0  0  0  0
   28.1750   -1.9180    3.8970 C   0  0  0  0  0  0  0  0  0  0  0  0
   29.3550   -0.9430    3.9860 C   0  0  0  0  0  0  0  0  0  0  0  0
   30.4890   -1.6490    4.5300 O   0  0  0  0  0  0  0  0  0  0  0  0
   28.8130   -0.2710    6.2920 C   0  0  0  0  0  0  0  0  0  0  0  0
   26.5540    3.9330    7.1550 C   0  0  0  0  0  0  0  0  0  0  0  0
  2  1  1  0
 11  1  1  0
  3  2  1  0
  4  3  2  0
  5  3  1  0
  6  5  2  0
  7  6  1  0
 11  6  1  0
  8  7  1  0
  9  8  1  0
 10  9  1  0
 15  9  1  0
 11 10  1  0
 12 10  1  0
 21 11  1  0
 13 12  1  0
 14 13  1  0
 15 14  1  0
 18 14  1  0
 20 14  1  0
 16 15  1  0
 17 16  1  0
 18 17  1  0
 19 18  1  0
A    1
C1
A    2
C2
A    3
C3
A    4
O3
A    5
C4
A    6
C5
A    7
C6
A    8
C7
A    9
C8
A   10
C9
A   11
C10
A   12
C11
A   13
C12
A   14
C13
A   15
C14
A   16
C15
A   17
C16
A   18
C17
A   19
O17
A   20
C18
A   21
C19
M  END
>  <Id>  (5) 
3ZQT_TES_A_1000

>  <ChainId>  (5) 
A

>  <AsymId>  (5) 
B

>  <SeqNum>  (5) 
1000

>  <Name>  (5) 
TESTOSTERONE

>  <SystematicName>  (5) 
(8R,9S,10R,13S,14S,17S)-17-hydroxy-10,13-dimethyl-1,2,6,7,8,9,11,12,14,15,16,17-dodecahydrocyclopenta[a]phenanthren-3-one

>  <Synonyms>  (5) 


>  <Type>  (5) 
NON-POLYMER

>  <Formula>  (5) 
C19 H28 O2

>  <ObservedFormula>  (5) 
C19 O2

>  <MolecularWeight>  (5) 
288.424

>  <ModifiedDate>  (5) 
2011-06-04

>  <Parent>  (5) 


>  <OneLetterCode>  (5) 


>  <SubcomponentList>  (5) 


>  <AmbiguousFlag>  (5) 
N

>  <InsertionCode>  (5) 


>  <InstanceId>  (5) 
3ZQT_TES_A_1000

>  <ChemCompId>  (5) 
TES

>  <PdbId>  (5) 
3ZQT

>  <ResidueNumber>  (5) 
1000

>  <InChI>  (5) 
InChI=1S/C19H28O2/c1-18-9-7-13(20)11-12(18)3-4-14-15-5-6-17(21)19(15,2)10-8-16(14)18/h11,14-17,21H,3-10H2,1-2H3/t14-,15-,16-,17-,18-,19-/m0/s1

>  <InChIKey>  (5) 
MUMGGOZAMZWBJJ-DYKIIFRCSA-N

>  <SMILES>  (5) 
C[C@]12CC[C@H]3[C@H]([C@@H]1CC[C@@H]2O)CCC4=CC(=O)CC[C@]34C

>  <MissingHeavyAtoms>  (5) 
0

>  <Model>  (5) 
1

>  <AltIds>  (5) 


>  <pKI>  (5) 
7.54

>  <ChemblID>  (5) 
CHEMBL386630

>  <standardized_canonical_smiles>  (5) 
C[C@]12CC[C@H]3[C@@H](CCC4=CC(=O)CC[C@@]43C)[C@@H]1CC[C@@H]2O

$$$$
2Q7I_TES_A_205
     RDKit          3D

 21 24  0  0  0  0  0  0  0  0999 V2000
   27.6850    5.0120    4.4130 C   0  0  0  0  0  0  0  0  0  0  0  0
   26.9220    6.2940    4.7310 C   0  0  0  0  0  0  0  0  0  0  0  0
   25.4910    6.1600    4.2690 C   0  0  0  0  0  0  0  0  0  0  0  0
   24.8660    7.1580    3.9160 O   0  0  0  0  0  0  0  0  0  0  0  0
   24.8600    4.8270    4.2350 C   0  0  0  0  0  0  0  0  0  0  0  0
   25.5390    3.7050    4.5450 C   0  0  0  0  0  0  0  0  0  0  0  0
   24.7900    2.3930    4.5480 C   0  0  0  0  0  0  0  0  0  0  0  0
   25.5860    1.3000    3.8400 C   0  0  0  0  0  0  0  0  0  0  0  0
   26.9770    1.1770    4.4460 C   0  0  0  0  0  0  0  0  0  0  0  0
   27.7520    2.5080    4.3470 C   0  0  0  0  0  0  0  0  0  0  0  0
   27.0030    3.7290    4.9390 C   0  0  0  0  0  0  0  0  0  0  0  0
   29.1800    2.3490    4.9090 C   0  0  0  0  0  0  0  0  0  0  0  0
   29.9420    1.1950    4.2670 C   0  0  0  0  0  0  0  0  0  0  0  0
   29.1770   -0.1240    4.3790 C   0  0  0  0  0  0  0  0  0  0  0  0
   27.7870    0.0570    3.7780 C   0  0  0  0  0  0  0  0  0  0  0  0
   27.2290   -1.3710    3.7520 C   0  0  0  0  0  0  0  0  0  0  0  0
   28.4550   -2.2260    3.3910 C   0  0  0  0  0  0  0  0  0  0  0  0
   29.6720   -1.2860    3.5110 C   0  0  0  0  0  0  0  0  0  0  0  0
   30.8140   -1.9670    4.0240 O   0  0  0  0  0  0  0  0  0  0  0  0
   29.1390   -0.5430    5.8580 C   0  0  0  0  0  0  0  0  0  0  0  0
   26.9810    3.7470    6.4750 C   0  0  0  0  0  0  0  0  0  0  0  0
  2  1  1  0
 11  1  1  0
  3  2  1  0
  4  3  2  0
  5  3  1  0
  6  5  2  0
  7  6  1  0
 11  6  1  0
  8  7  1  0
  9  8  1  0
 10  9  1  0
 15  9  1  0
 11 10  1  0
 12 10  1  0
 21 11  1  0
 13 12  1  0
 14 13  1  0
 15 14  1  0
 18 14  1  0
 20 14  1  0
 16 15  1  0
 17 16  1  0
 18 17  1  0
 19 18  1  0
A    1
C1
A    2
C2
A    3
C3
A    4
O3
A    5
C4
A    6
C5
A    7
C6
A    8
C7
A    9
C8
A   10
C9
A   11
C10
A   12
C11
A   13
C12
A   14
C13
A   15
C14
A   16
C15
A   17
C16
A   18
C17
A   19
O17
A   20
C18
A   21
C19
M  END
>  <Id>  (6) 
2Q7I_TES_A_205

>  <ChainId>  (6) 
A

>  <AsymId>  (6) 
E

>  <SeqNum>  (6) 
205

>  <Name>  (6) 
TESTOSTERONE

>  <SystematicName>  (6) 
(8R,9S,10R,13S,14S,17S)-17-hydroxy-10,13-dimethyl-1,2,6,7,8,9,11,12,14,15,16,17-dodecahydrocyclopenta[a]phenanthren-3-one

>  <Synonyms>  (6) 


>  <Type>  (6) 
NON-POLYMER

>  <Formula>  (6) 
C19 H28 O2

>  <ObservedFormula>  (6) 
C19 O2

>  <MolecularWeight>  (6) 
288.424

>  <ModifiedDate>  (6) 
2011-06-04

>  <Parent>  (6) 


>  <OneLetterCode>  (6) 


>  <SubcomponentList>  (6) 


>  <AmbiguousFlag>  (6) 
N

>  <InsertionCode>  (6) 


>  <InstanceId>  (6) 
2Q7I_TES_A_205

>  <ChemCompId>  (6) 
TES

>  <PdbId>  (6) 
2Q7I

>  <ResidueNumber>  (6) 
205

>  <InChI>  (6) 
InChI=1S/C19H28O2/c1-18-9-7-13(20)11-12(18)3-4-14-15-5-6-17(21)19(15,2)10-8-16(14)18/h11,14-17,21H,3-10H2,1-2H3/t14-,15-,16-,17-,18-,19-/m0/s1

>  <InChIKey>  (6) 
MUMGGOZAMZWBJJ-DYKIIFRCSA-N

>  <SMILES>  (6) 
C[C@]12CC[C@H]3[C@H]([C@@H]1CC[C@@H]2O)CCC4=CC(=O)CC[C@]34C

>  <MissingHeavyAtoms>  (6) 
0

>  <Model>  (6) 
1

>  <AltIds>  (6) 


>  <pKI>  (6) 
7.54

>  <ChemblID>  (6) 
CHEMBL386630

>  <standardized_canonical_smiles>  (6) 
C[C@]12CC[C@H]3[C@@H](CCC4=CC(=O)CC[C@@]43C)[C@@H]1CC[C@@H]2O

$$$$
2YLP_TES_A_1921
     RDKit          3D

 21 24  0  0  0  0  0  0  0  0999 V2000
   27.4680   -4.8510   -5.0660 C   0  0  0  0  0  0  0  0  0  0  0  0
   26.7620   -6.1640   -5.4030 C   0  0  0  0  0  0  0  0  0  0  0  0
   25.2980   -6.0490   -5.0260 C   0  0  0  0  0  0  0  0  0  0  0  0
   24.6650   -7.0650   -4.7640 O   0  0  0  0  0  0  0  0  0  0  0  0
   24.6580   -4.7070   -5.0160 C   0  0  0  0  0  0  0  0  0  0  0  0
   25.3120   -3.5490   -5.2600 C   0  0  0  0  0  0  0  0  0  0  0  0
   24.5090   -2.2270   -5.1990 C   0  0  0  0  0  0  0  0  0  0  0  0
   25.3490   -1.0810   -4.5950 C   0  0  0  0  0  0  0  0  0  0  0  0
   26.7790   -1.0430   -5.1230 C   0  0  0  0  0  0  0  0  0  0  0  0
   27.5280   -2.3900   -4.9430 C   0  0  0  0  0  0  0  0  0  0  0  0
   26.8030   -3.5710   -5.6010 C   0  0  0  0  0  0  0  0  0  0  0  0
   29.0220   -2.3790   -5.4060 C   0  0  0  0  0  0  0  0  0  0  0  0
   29.8200   -1.1640   -4.8690 C   0  0  0  0  0  0  0  0  0  0  0  0
   29.0460    0.1590   -5.0130 C   0  0  0  0  0  0  0  0  0  0  0  0
   27.6250    0.0380   -4.4580 C   0  0  0  0  0  0  0  0  0  0  0  0
   27.0960    1.4760   -4.4040 C   0  0  0  0  0  0  0  0  0  0  0  0
   28.3210    2.2460   -3.9030 C   0  0  0  0  0  0  0  0  0  0  0  0
   29.5250    1.3170   -4.1170 C   0  0  0  0  0  0  0  0  0  0  0  0
   30.6160    2.0780   -4.6340 O   0  0  0  0  0  0  0  0  0  0  0  0
   28.9760    0.5150   -6.5180 C   0  0  0  0  0  0  0  0  0  0  0  0
   27.0200   -3.4730   -7.1190 C   0  0  0  0  0  0  0  0  0  0  0  0
  2  1  1  0
 11  1  1  0
  3  2  1  0
  4  3  2  0
  5  3  1  0
  6  5  2  0
  7  6  1  0
 11  6  1  0
  8  7  1  0
  9  8  1  0
 10  9  1  0
 15  9  1  0
 11 10  1  0
 12 10  1  0
 21 11  1  0
 13 12  1  0
 14 13  1  0
 15 14  1  0
 18 14  1  0
 20 14  1  0
 16 15  1  0
 17 16  1  0
 18 17  1  0
 19 18  1  0
A    1
C1
A    2
C2
A    3
C3
A    4
O3
A    5
C4
A    6
C5
A    7
C6
A    8
C7
A    9
C8
A   10
C9
A   11
C10
A   12
C11
A   13
C12
A   14
C13
A   15
C14
A   16
C15
A   17
C16
A   18
C17
A   19
O17
A   20
C18
A   21
C19
M  END
>  <Id>  (7) 
2YLP_TES_A_1921

>  <ChainId>  (7) 
A

>  <AsymId>  (7) 
C

>  <SeqNum>  (7) 
1921

>  <Name>  (7) 
TESTOSTERONE

>  <SystematicName>  (7) 
(8R,9S,10R,13S,14S,17S)-17-hydroxy-10,13-dimethyl-1,2,6,7,8,9,11,12,14,15,16,17-dodecahydrocyclopenta[a]phenanthren-3-one

>  <Synonyms>  (7) 


>  <Type>  (7) 
NON-POLYMER

>  <Formula>  (7) 
C19 H28 O2

>  <ObservedFormula>  (7) 
C19 O2

>  <MolecularWeight>  (7) 
288.424

>  <ModifiedDate>  (7) 
2011-06-04

>  <Parent>  (7) 


>  <OneLetterCode>  (7) 


>  <SubcomponentList>  (7) 


>  <AmbiguousFlag>  (7) 
N

>  <InsertionCode>  (7) 


>  <InstanceId>  (7) 
2YLP_TES_A_1921

>  <ChemCompId>  (7) 
TES

>  <PdbId>  (7) 
2YLP

>  <ResidueNumber>  (7) 
1921

>  <InChI>  (7) 
InChI=1S/C19H28O2/c1-18-9-7-13(20)11-12(18)3-4-14-15-5-6-17(21)19(15,2)10-8-16(14)18/h11,14-17,21H,3-10H2,1-2H3/t14-,15-,16-,17-,18-,19-/m0/s1

>  <InChIKey>  (7) 
MUMGGOZAMZWBJJ-DYKIIFRCSA-N

>  <SMILES>  (7) 
C[C@]12CC[C@H]3[C@H]([C@@H]1CC[C@@H]2O)CCC4=CC(=O)CC[C@]34C

>  <MissingHeavyAtoms>  (7) 
0

>  <Model>  (7) 
1

>  <AltIds>  (7) 


>  <pKI>  (7) 
7.54

>  <ChemblID>  (7) 
CHEMBL386630

>  <standardized_canonical_smiles>  (7) 
C[C@]12CC[C@H]3[C@@H](CCC4=CC(=O)CC[C@@]43C)[C@@H]1CC[C@@H]2O

$$$$
2YLQ_TES_A_1921
     RDKit          3D

 21 24  0  0  0  0  0  0  0  0999 V2000
   27.2830   -4.9270   -5.1400 C   0  0  0  0  0  0  0  0  0  0  0  0
   26.5080   -6.1800   -5.5460 C   0  0  0  0  0  0  0  0  0  0  0  0
   25.0940   -6.0430   -5.0250 C   0  0  0  0  0  0  0  0  0  0  0  0
   24.4720   -7.0300   -4.6190 O   0  0  0  0  0  0  0  0  0  0  0  0
   24.4690   -4.7010   -5.0200 C   0  0  0  0  0  0  0  0  0  0  0  0
   25.1650   -3.5880   -5.3610 C   0  0  0  0  0  0  0  0  0  0  0  0
   24.4310   -2.2590   -5.3760 C   0  0  0  0  0  0  0  0  0  0  0  0
   25.2330   -1.2500   -4.5870 C   0  0  0  0  0  0  0  0  0  0  0  0
   26.6050   -1.0840   -5.1730 C   0  0  0  0  0  0  0  0  0  0  0  0
   27.3440   -2.4330   -5.0560 C   0  0  0  0  0  0  0  0  0  0  0  0
   26.6340   -3.6330   -5.7030 C   0  0  0  0  0  0  0  0  0  0  0  0
   28.8230   -2.3600   -5.5070 C   0  0  0  0  0  0  0  0  0  0  0  0
   29.5940   -1.2020   -4.8280 C   0  0  0  0  0  0  0  0  0  0  0  0
   28.8470    0.1230   -4.9330 C   0  0  0  0  0  0  0  0  0  0  0  0
   27.4300   -0.0500   -4.3950 C   0  0  0  0  0  0  0  0  0  0  0  0
   26.9000    1.3670   -4.1370 C   0  0  0  0  0  0  0  0  0  0  0  0
   28.1580    2.2030   -3.8690 C   0  0  0  0  0  0  0  0  0  0  0  0
   29.3290    1.2320   -3.9900 C   0  0  0  0  0  0  0  0  0  0  0  0
   30.5190    1.9150   -4.3890 O   0  0  0  0  0  0  0  0  0  0  0  0
   28.8080    0.5420   -6.4070 C   0  0  0  0  0  0  0  0  0  0  0  0
   26.7640   -3.6110   -7.2320 C   0  0  0  0  0  0  0  0  0  0  0  0
  2  1  1  0
 11  1  1  0
  3  2  1  0
  4  3  2  0
  5  3  1  0
  6  5  2  0
  7  6  1  0
 11  6  1  0
  8  7  1  0
  9  8  1  0
 10  9  1  0
 15  9  1  0
 11 10  1  0
 12 10  1  0
 21 11  1  0
 13 12  1  0
 14 13  1  0
 15 14  1  0
 18 14  1  0
 20 14  1  0
 16 15  1  0
 17 16  1  0
 18 17  1  0
 19 18  1  0
A    1
C1
A    2
C2
A    3
C3
A    4
O3
A    5
C4
A    6
C5
A    7
C6
A    8
C7
A    9
C8
A   10
C9
A   11
C10
A   12
C11
A   13
C12
A   14
C13
A   15
C14
A   16
C15
A   17
C16
A   18
C17
A   19
O17
A   20
C18
A   21
C19
M  END
>  <Id>  (8) 
2YLQ_TES_A_1921

>  <ChainId>  (8) 
A

>  <AsymId>  (8) 
C

>  <SeqNum>  (8) 
1921

>  <Name>  (8) 
TESTOSTERONE

>  <SystematicName>  (8) 
(8R,9S,10R,13S,14S,17S)-17-hydroxy-10,13-dimethyl-1,2,6,7,8,9,11,12,14,15,16,17-dodecahydrocyclopenta[a]phenanthren-3-one

>  <Synonyms>  (8) 


>  <Type>  (8) 
NON-POLYMER

>  <Formula>  (8) 
C19 H28 O2

>  <ObservedFormula>  (8) 
C19 O2

>  <MolecularWeight>  (8) 
288.424

>  <ModifiedDate>  (8) 
2011-06-04

>  <Parent>  (8) 


>  <OneLetterCode>  (8) 


>  <SubcomponentList>  (8) 


>  <AmbiguousFlag>  (8) 
N

>  <InsertionCode>  (8) 


>  <InstanceId>  (8) 
2YLQ_TES_A_1921

>  <ChemCompId>  (8) 
TES

>  <PdbId>  (8) 
2YLQ

>  <ResidueNumber>  (8) 
1921

>  <InChI>  (8) 
InChI=1S/C19H28O2/c1-18-9-7-13(20)11-12(18)3-4-14-15-5-6-17(21)19(15,2)10-8-16(14)18/h11,14-17,21H,3-10H2,1-2H3/t14-,15-,16-,17-,18-,19-/m0/s1

>  <InChIKey>  (8) 
MUMGGOZAMZWBJJ-DYKIIFRCSA-N

>  <SMILES>  (8) 
C[C@]12CC[C@H]3[C@H]([C@@H]1CC[C@@H]2O)CCC4=CC(=O)CC[C@]34C

>  <MissingHeavyAtoms>  (8) 
0

>  <Model>  (8) 
1

>  <AltIds>  (8) 


>  <pKI>  (8) 
7.54

>  <ChemblID>  (8) 
CHEMBL386630

>  <standardized_canonical_smiles>  (8) 
C[C@]12CC[C@H]3[C@@H](CCC4=CC(=O)CC[C@@]43C)[C@@H]1CC[C@@H]2O

$$$$
2YLO_TES_A_1920
     RDKit          3D

 21 24  0  0  0  0  0  0  0  0999 V2000
  -24.1280    2.3680   -5.3790 C   0  0  0  0  0  0  0  0  0  0  0  0
  -30.2310   -1.7660   -4.6480 O   0  0  0  0  0  0  0  0  0  0  0  0
  -27.8920   -2.0590   -3.8340 C   0  0  0  0  0  0  0  0  0  0  0  0
  -24.9090    3.6750   -5.4430 C   0  0  0  0  0  0  0  0  0  0  0  0
  -24.9540    1.3860   -4.5740 C   0  0  0  0  0  0  0  0  0  0  0  0
  -27.0970    5.0420   -5.2580 C   0  0  0  0  0  0  0  0  0  0  0  0
  -28.6210    2.4540   -5.4920 C   0  0  0  0  0  0  0  0  0  0  0  0
  -26.3720    1.2460   -5.0900 C   0  0  0  0  0  0  0  0  0  0  0  0
  -26.6320   -1.2440   -4.1820 C   0  0  0  0  0  0  0  0  0  0  0  0
  -24.1720    4.7890   -5.2870 C   0  0  0  0  0  0  0  0  0  0  0  0
  -27.1380    2.5670   -5.0170 C   0  0  0  0  0  0  0  0  0  0  0  0
  -24.7710    6.1170   -5.1090 C   0  0  0  0  0  0  0  0  0  0  0  0
  -27.1710    0.1920   -4.3180 C   0  0  0  0  0  0  0  0  0  0  0  0
  -24.0310    7.0470   -4.7680 O   0  0  0  0  0  0  0  0  0  0  0  0
  -29.3870    1.3120   -4.8030 C   0  0  0  0  0  0  0  0  0  0  0  0
  -26.2550    6.3360   -5.3460 C   0  0  0  0  0  0  0  0  0  0  0  0
  -26.4230    3.7210   -5.7210 C   0  0  0  0  0  0  0  0  0  0  0  0
  -29.1110   -1.1150   -4.0280 C   0  0  0  0  0  0  0  0  0  0  0  0
  -26.6500    3.6140   -7.2220 C   0  0  0  0  0  0  0  0  0  0  0  0
  -28.5880    0.0220   -4.8950 C   0  0  0  0  0  0  0  0  0  0  0  0
  -28.5070   -0.3560   -6.3810 C   0  0  0  0  0  0  0  0  0  0  0  0
 12 10  1  0
  6 16  1  0
  9  3  1  0
  5  8  1  0
 16 12  1  0
  4 17  1  0
  7 15  1  0
  4  1  1  0
 20 21  1  0
 11 17  1  0
 20 13  1  0
  3 18  1  0
  8 13  1  0
 13  9  1  0
  8 11  1  0
 17 19  1  0
 18  2  1  0
 10  4  2  0
  6 17  1  0
  1  5  1  0
 15 20  1  0
 20 18  1  0
 12 14  2  0
 11  7  1  0
A    1
C6
A    2
O17
A    3
C16
A    4
C5
A    5
C7
A    6
C1
A    7
C11
A    8
C8
A    9
C15
A   10
C4
A   11
C9
A   12
C3
A   13
C14
A   14
O3
A   15
C12
A   16
C2
A   17
C10
A   18
C17
A   19
C19
A   20
C13
A   21
C18
M  END
>  <InstanceId>  (9) 
2YLO_TES_A_1920

>  <ChemCompId>  (9) 
TES

>  <PdbId>  (9) 
2YLO

>  <ChainId>  (9) 
A

>  <ResidueNumber>  (9) 
1920

>  <InsertionCode>  (9) 


>  <Model>  (9) 
1

>  <AltIds>  (9) 


>  <MissingHeavyAtoms>  (9) 
0

>  <ObservedFormula>  (9) 
C19 O2

>  <AsymId>  (9) 
B

>  <SeqNum>  (9) 
1920

>  <Name>  (9) 
TESTOSTERONE

>  <SystematicName>  (9) 
(8R,9S,10R,13S,14S,17S)-17-hydroxy-10,13-dimethyl-1,2,6,7,8,9,11,12,14,15,16,17-dodecahydrocyclopenta[a]phenanthren-3-one

>  <Synonyms>  (9) 


>  <Type>  (9) 
NON-POLYMER

>  <Formula>  (9) 
C19 H28 O2

>  <MolecularWeight>  (9) 
288.424

>  <ModifiedDate>  (9) 
2011-06-04

>  <Parent>  (9) 


>  <OneLetterCode>  (9) 


>  <SubcomponentList>  (9) 


>  <AmbiguousFlag>  (9) 
N

>  <InChI>  (9) 
null

>  <InChIKey>  (9) 
null

>  <SMILES>  (9) 
C[C@]12CC[C@H]3[C@H]([C@@H]1CC[C@@H]2O)CCC4=CC(=O)CC[C@]34C

>  <pKI>  (9) 
7.54

>  <ChemblID>  (9) 
CHEMBL386630

>  <standardized_canonical_smiles>  (9) 
C[C@]12CC[C@H]3[C@@H](CCC4=CC(=O)CC[C@@]43C)[C@@H]1CC[C@@H]2O

$$$$
2YHD_TES_A_1920
     RDKit          3D

 21 24  0  0  0  0  0  0  0  0999 V2000
   27.7980    4.7710    5.1810 C   0  0  0  0  0  0  0  0  0  0  0  0
   27.0970    6.0710    5.5830 C   0  0  0  0  0  0  0  0  0  0  0  0
   25.6790    5.9600    5.1340 C   0  0  0  0  0  0  0  0  0  0  0  0
   25.0560    6.9660    4.7530 O   0  0  0  0  0  0  0  0  0  0  0  0
   25.0520    4.6110    5.1590 C   0  0  0  0  0  0  0  0  0  0  0  0
   25.7140    3.4480    5.4010 C   0  0  0  0  0  0  0  0  0  0  0  0
   24.9290    2.1300    5.2400 C   0  0  0  0  0  0  0  0  0  0  0  0
   25.7690    0.9500    4.6910 C   0  0  0  0  0  0  0  0  0  0  0  0
   27.1750    0.8940    5.2340 C   0  0  0  0  0  0  0  0  0  0  0  0
   27.8900    2.2610    5.1190 C   0  0  0  0  0  0  0  0  0  0  0  0
   27.1760    3.4800    5.7710 C   0  0  0  0  0  0  0  0  0  0  0  0
   29.3770    2.2230    5.5130 C   0  0  0  0  0  0  0  0  0  0  0  0
   30.1740    1.0180    4.9290 C   0  0  0  0  0  0  0  0  0  0  0  0
   29.3690   -0.2880    5.0280 C   0  0  0  0  0  0  0  0  0  0  0  0
   28.0110   -0.1130    4.4240 C   0  0  0  0  0  0  0  0  0  0  0  0
   27.4870   -1.5520    4.1720 C   0  0  0  0  0  0  0  0  0  0  0  0
   28.7380   -2.4000    3.9330 C   0  0  0  0  0  0  0  0  0  0  0  0
   29.8590   -1.3990    4.1120 C   0  0  0  0  0  0  0  0  0  0  0  0
   31.0500   -1.9860    4.5760 O   0  0  0  0  0  0  0  0  0  0  0  0
   29.2160   -0.6590    6.5200 C   0  0  0  0  0  0  0  0  0  0  0  0
   27.4060    3.5110    7.3030 C   0  0  0  0  0  0  0  0  0  0  0  0
  2  1  1  0
 11  1  1  0
  3  2  1  0
  4  3  2  0
  5  3  1  0
  6  5  2  0
  7  6  1  0
 11  6  1  0
  8  7  1  0
  9  8  1  0
 10  9  1  0
 15  9  1  0
 11 10  1  0
 12 10  1  0
 21 11  1  0
 13 12  1  0
 14 13  1  0
 15 14  1  0
 18 14  1  0
 20 14  1  0
 16 15  1  0
 17 16  1  0
 18 17  1  0
 19 18  1  0
A    1
C1
A    2
C2
A    3
C3
A    4
O3
A    5
C4
A    6
C5
A    7
C6
A    8
C7
A    9
C8
A   10
C9
A   11
C10
A   12
C11
A   13
C12
A   14
C13
A   15
C14
A   16
C15
A   17
C16
A   18
C17
A   19
O17
A   20
C18
A   21
C19
M  END
>  <Id>  (10) 
2YHD_TES_A_1920

>  <ChainId>  (10) 
A

>  <AsymId>  (10) 
C

>  <SeqNum>  (10) 
1920

>  <Name>  (10) 
TESTOSTERONE

>  <SystematicName>  (10) 
(8R,9S,10R,13S,14S,17S)-17-hydroxy-10,13-dimethyl-1,2,6,7,8,9,11,12,14,15,16,17-dodecahydrocyclopenta[a]phenanthren-3-one

>  <Synonyms>  (10) 


>  <Type>  (10) 
NON-POLYMER

>  <Formula>  (10) 
C19 H28 O2

>  <ObservedFormula>  (10) 
C19 O2

>  <MolecularWeight>  (10) 
288.424

>  <ModifiedDate>  (10) 
2011-06-04

>  <Parent>  (10) 


>  <OneLetterCode>  (10) 


>  <SubcomponentList>  (10) 


>  <AmbiguousFlag>  (10) 
N

>  <InsertionCode>  (10) 


>  <InstanceId>  (10) 
2YHD_TES_A_1920

>  <ChemCompId>  (10) 
TES

>  <PdbId>  (10) 
2YHD

>  <ResidueNumber>  (10) 
1920

>  <InChI>  (10) 
InChI=1S/C19H28O2/c1-18-9-7-13(20)11-12(18)3-4-14-15-5-6-17(21)19(15,2)10-8-16(14)18/h11,14-17,21H,3-10H2,1-2H3/t14-,15-,16-,17-,18-,19-/m0/s1

>  <InChIKey>  (10) 
MUMGGOZAMZWBJJ-DYKIIFRCSA-N

>  <SMILES>  (10) 
C[C@]12CC[C@H]3[C@H]([C@@H]1CC[C@@H]2O)CCC4=CC(=O)CC[C@]34C

>  <MissingHeavyAtoms>  (10) 
0

>  <Model>  (10) 
1

>  <AltIds>  (10) 


>  <pKI>  (10) 
7.54

>  <ChemblID>  (10) 
CHEMBL386630

>  <standardized_canonical_smiles>  (10) 
C[C@]12CC[C@H]3[C@@H](CCC4=CC(=O)CC[C@@]43C)[C@@H]1CC[C@@H]2O

$$$$
2Q7J_TES_A_203
     RDKit          3D

 21 24  0  0  0  0  0  0  0  0999 V2000
   27.1650    5.1800    4.3910 C   0  0  0  0  0  0  0  0  0  0  0  0
   26.3490    6.4260    4.6880 C   0  0  0  0  0  0  0  0  0  0  0  0
   24.9460    6.2640    4.1710 C   0  0  0  0  0  0  0  0  0  0  0  0
   24.3250    7.2210    3.7100 O   0  0  0  0  0  0  0  0  0  0  0  0
   24.3400    4.9140    4.1770 C   0  0  0  0  0  0  0  0  0  0  0  0
   25.0550    3.8170    4.4950 C   0  0  0  0  0  0  0  0  0  0  0  0
   24.3460    2.4730    4.4520 C   0  0  0  0  0  0  0  0  0  0  0  0
   25.2110    1.4340    3.7480 C   0  0  0  0  0  0  0  0  0  0  0  0
   26.5840    1.3540    4.4100 C   0  0  0  0  0  0  0  0  0  0  0  0
   27.3080    2.7040    4.3130 C   0  0  0  0  0  0  0  0  0  0  0  0
   26.5150    3.8870    4.9170 C   0  0  0  0  0  0  0  0  0  0  0  0
   28.7400    2.6100    4.8700 C   0  0  0  0  0  0  0  0  0  0  0  0
   29.5770    1.4930    4.2510 C   0  0  0  0  0  0  0  0  0  0  0  0
   28.8580    0.1690    4.3650 C   0  0  0  0  0  0  0  0  0  0  0  0
   27.4700    0.2920    3.7590 C   0  0  0  0  0  0  0  0  0  0  0  0
   26.9840   -1.1560    3.7220 C   0  0  0  0  0  0  0  0  0  0  0  0
   28.2570   -1.9330    3.3710 C   0  0  0  0  0  0  0  0  0  0  0  0
   29.4240   -0.9530    3.4850 C   0  0  0  0  0  0  0  0  0  0  0  0
   30.6060   -1.5940    3.9910 O   0  0  0  0  0  0  0  0  0  0  0  0
   28.7930   -0.2630    5.8420 C   0  0  0  0  0  0  0  0  0  0  0  0
   26.4790    3.9040    6.4530 C   0  0  0  0  0  0  0  0  0  0  0  0
  2  1  1  0
 11  1  1  0
  3  2  1  0
  4  3  2  0
  5  3  1  0
  6  5  2  0
  7  6  1  0
 11  6  1  0
  8  7  1  0
  9  8  1  0
 10  9  1  0
 15  9  1  0
 11 10  1  0
 12 10  1  0
 21 11  1  0
 13 12  1  0
 14 13  1  0
 15 14  1  0
 18 14  1  0
 20 14  1  0
 16 15  1  0
 17 16  1  0
 18 17  1  0
 19 18  1  0
A    1
C1
A    2
C2
A    3
C3
A    4
O3
A    5
C4
A    6
C5
A    7
C6
A    8
C7
A    9
C8
A   10
C9
A   11
C10
A   12
C11
A   13
C12
A   14
C13
A   15
C14
A   16
C15
A   17
C16
A   18
C17
A   19
O17
A   20
C18
A   21
C19
M  END
>  <Id>  (11) 
2Q7J_TES_A_203

>  <ChainId>  (11) 
A

>  <AsymId>  (11) 
D

>  <SeqNum>  (11) 
203

>  <Name>  (11) 
TESTOSTERONE

>  <SystematicName>  (11) 
(8R,9S,10R,13S,14S,17S)-17-hydroxy-10,13-dimethyl-1,2,6,7,8,9,11,12,14,15,16,17-dodecahydrocyclopenta[a]phenanthren-3-one

>  <Synonyms>  (11) 


>  <Type>  (11) 
NON-POLYMER

>  <Formula>  (11) 
C19 H28 O2

>  <ObservedFormula>  (11) 
C19 O2

>  <MolecularWeight>  (11) 
288.424

>  <ModifiedDate>  (11) 
2011-06-04

>  <Parent>  (11) 


>  <OneLetterCode>  (11) 


>  <SubcomponentList>  (11) 


>  <AmbiguousFlag>  (11) 
N

>  <InsertionCode>  (11) 


>  <InstanceId>  (11) 
2Q7J_TES_A_203

>  <ChemCompId>  (11) 
TES

>  <PdbId>  (11) 
2Q7J

>  <ResidueNumber>  (11) 
203

>  <InChI>  (11) 
InChI=1S/C19H28O2/c1-18-9-7-13(20)11-12(18)3-4-14-15-5-6-17(21)19(15,2)10-8-16(14)18/h11,14-17,21H,3-10H2,1-2H3/t14-,15-,16-,17-,18-,19-/m0/s1

>  <InChIKey>  (11) 
MUMGGOZAMZWBJJ-DYKIIFRCSA-N

>  <SMILES>  (11) 
C[C@]12CC[C@H]3[C@H]([C@@H]1CC[C@@H]2O)CCC4=CC(=O)CC[C@]34C

>  <MissingHeavyAtoms>  (11) 
0

>  <Model>  (11) 
1

>  <AltIds>  (11) 


>  <pKI>  (11) 
7.54

>  <ChemblID>  (11) 
CHEMBL386630

>  <standardized_canonical_smiles>  (11) 
C[C@]12CC[C@H]3[C@@H](CCC4=CC(=O)CC[C@@]43C)[C@@H]1CC[C@@H]2O

$$$$
2AM9_TES_A_1000
     RDKit          3D

 21 24  0  0  0  0  0  0  0  0999 V2000
   26.9610    5.2750    4.7480 C   0  0  0  0  0  0  0  0  0  0  0  0
   26.0870    6.5150    5.0500 C   0  0  0  0  0  0  0  0  0  0  0  0
   24.7140    6.3800    4.4550 C   0  0  0  0  0  0  0  0  0  0  0  0
   24.0440    7.4060    3.9390 O   0  0  0  0  0  0  0  0  0  0  0  0
   24.1250    5.0470    4.4570 C   0  0  0  0  0  0  0  0  0  0  0  0
   24.8080    3.9090    4.8030 C   0  0  0  0  0  0  0  0  0  0  0  0
   24.0890    2.5690    4.7900 C   0  0  0  0  0  0  0  0  0  0  0  0
   24.8770    1.4740    4.0590 C   0  0  0  0  0  0  0  0  0  0  0  0
   26.3060    1.3630    4.6670 C   0  0  0  0  0  0  0  0  0  0  0  0
   27.0680    2.7200    4.5650 C   0  0  0  0  0  0  0  0  0  0  0  0
   26.3230    3.9250    5.2440 C   0  0  0  0  0  0  0  0  0  0  0  0
   28.5550    2.7000    5.0980 C   0  0  0  0  0  0  0  0  0  0  0  0
   29.3370    1.5340    4.4490 C   0  0  0  0  0  0  0  0  0  0  0  0
   28.6170    0.1640    4.6020 C   0  0  0  0  0  0  0  0  0  0  0  0
   27.1900    0.2970    3.9730 C   0  0  0  0  0  0  0  0  0  0  0  0
   26.6680   -1.1630    3.8940 C   0  0  0  0  0  0  0  0  0  0  0  0
   27.9500   -1.9990    3.6690 C   0  0  0  0  0  0  0  0  0  0  0  0
   29.1270   -0.9850    3.6840 C   0  0  0  0  0  0  0  0  0  0  0  0
   30.3270   -1.5900    4.2060 O   0  0  0  0  0  0  0  0  0  0  0  0
   28.5870   -0.2730    6.1200 C   0  0  0  0  0  0  0  0  0  0  0  0
   26.3440    3.8460    6.7980 C   0  0  0  0  0  0  0  0  0  0  0  0
  2  1  1  0
 11  1  1  0
  3  2  1  0
  4  3  2  0
  5  3  1  0
  6  5  2  0
  7  6  1  0
 11  6  1  0
  8  7  1  0
  9  8  1  0
 10  9  1  0
 15  9  1  0
 11 10  1  0
 12 10  1  0
 21 11  1  0
 13 12  1  0
 14 13  1  0
 15 14  1  0
 18 14  1  0
 20 14  1  0
 16 15  1  0
 17 16  1  0
 18 17  1  0
 19 18  1  0
A    1
C1
A    2
C2
A    3
C3
A    4
O3
A    5
C4
A    6
C5
A    7
C6
A    8
C7
A    9
C8
A   10
C9
A   11
C10
A   12
C11
A   13
C12
A   14
C13
A   15
C14
A   16
C15
A   17
C16
A   18
C17
A   19
O17
A   20
C18
A   21
C19
M  END
>  <Id>  (12) 
2AM9_TES_A_1000

>  <ChainId>  (12) 
A

>  <AsymId>  (12) 
C

>  <SeqNum>  (12) 
1000

>  <Name>  (12) 
TESTOSTERONE

>  <SystematicName>  (12) 
(8R,9S,10R,13S,14S,17S)-17-hydroxy-10,13-dimethyl-1,2,6,7,8,9,11,12,14,15,16,17-dodecahydrocyclopenta[a]phenanthren-3-one

>  <Synonyms>  (12) 


>  <Type>  (12) 
NON-POLYMER

>  <Formula>  (12) 
C19 H28 O2

>  <ObservedFormula>  (12) 
C19 O2

>  <MolecularWeight>  (12) 
288.424

>  <ModifiedDate>  (12) 
2011-06-04

>  <Parent>  (12) 


>  <OneLetterCode>  (12) 


>  <SubcomponentList>  (12) 


>  <AmbiguousFlag>  (12) 
N

>  <InsertionCode>  (12) 


>  <InstanceId>  (12) 
2AM9_TES_A_1000

>  <ChemCompId>  (12) 
TES

>  <PdbId>  (12) 
2AM9

>  <ResidueNumber>  (12) 
1000

>  <InChI>  (12) 
InChI=1S/C19H28O2/c1-18-9-7-13(20)11-12(18)3-4-14-15-5-6-17(21)19(15,2)10-8-16(14)18/h11,14-17,21H,3-10H2,1-2H3/t14-,15-,16-,17-,18-,19-/m0/s1

>  <InChIKey>  (12) 
MUMGGOZAMZWBJJ-DYKIIFRCSA-N

>  <SMILES>  (12) 
C[C@]12CC[C@H]3[C@H]([C@@H]1CC[C@@H]2O)CCC4=CC(=O)CC[C@]34C

>  <MissingHeavyAtoms>  (12) 
0

>  <Model>  (12) 
1

>  <AltIds>  (12) 


>  <pKI>  (12) 
7.54

>  <ChemblID>  (12) 
CHEMBL386630

>  <standardized_canonical_smiles>  (12) 
C[C@]12CC[C@H]3[C@@H](CCC4=CC(=O)CC[C@@]43C)[C@@H]1CC[C@@H]2O

$$$$
2Q7L_TES_A_155
     RDKit          3D

 21 24  0  0  0  0  0  0  0  0999 V2000
   24.3530    2.6550    4.4320 C   0  0  0  0  0  0  0  0  0  0  0  0
   30.5560   -1.4300    3.8020 O   0  0  0  0  0  0  0  0  0  0  0  0
   28.1750   -1.7460    3.1900 C   0  0  0  0  0  0  0  0  0  0  0  0
   25.0580    3.9960    4.4130 C   0  0  0  0  0  0  0  0  0  0  0  0
   25.1980    1.6340    3.6800 C   0  0  0  0  0  0  0  0  0  0  0  0
   27.1620    5.3660    4.3140 C   0  0  0  0  0  0  0  0  0  0  0  0
   28.7650    2.8090    4.7370 C   0  0  0  0  0  0  0  0  0  0  0  0
   26.5780    1.5490    4.3290 C   0  0  0  0  0  0  0  0  0  0  0  0
   26.9270   -0.9590    3.6000 C   0  0  0  0  0  0  0  0  0  0  0  0
   24.3570    5.0850    4.0530 C   0  0  0  0  0  0  0  0  0  0  0  0
   27.3140    2.9030    4.2180 C   0  0  0  0  0  0  0  0  0  0  0  0
   24.9690    6.4370    4.0730 C   0  0  0  0  0  0  0  0  0  0  0  0
   27.4280    0.4780    3.6540 C   0  0  0  0  0  0  0  0  0  0  0  0
   24.3650    7.3980    3.6180 O   0  0  0  0  0  0  0  0  0  0  0  0
   29.5820    1.6640    4.1150 C   0  0  0  0  0  0  0  0  0  0  0  0
   26.3520    6.6090    4.6290 C   0  0  0  0  0  0  0  0  0  0  0  0
   26.5240    4.0760    4.8370 C   0  0  0  0  0  0  0  0  0  0  0  0
   29.3620   -0.7820    3.3250 C   0  0  0  0  0  0  0  0  0  0  0  0
   26.4860    4.0520    6.3770 C   0  0  0  0  0  0  0  0  0  0  0  0
   28.8370    0.3390    4.2260 C   0  0  0  0  0  0  0  0  0  0  0  0
   28.8410   -0.0820    5.6870 C   0  0  0  0  0  0  0  0  0  0  0  0
 12 10  1  0
  6 16  1  0
  9  3  1  0
  5  8  1  0
 16 12  1  0
  4 17  1  0
  7 15  1  0
  4  1  1  0
 20 21  1  0
 11 17  1  0
 20 13  1  0
  3 18  1  0
  8 13  1  0
 13  9  1  0
  8 11  1  0
 17 19  1  0
 18  2  1  0
 10  4  2  0
  6 17  1  0
  1  5  1  0
 15 20  1  0
 20 18  1  0
 12 14  2  0
 11  7  1  0
A    1
C6
A    2
O17
A    3
C16
A    4
C5
A    5
C7
A    6
C1
A    7
C11
A    8
C8
A    9
C15
A   10
C4
A   11
C9
A   12
C3
A   13
C14
A   14
O3
A   15
C12
A   16
C2
A   17
C10
A   18
C17
A   19
C19
A   20
C13
A   21
C18
M  END
>  <InstanceId>  (13) 
2Q7L_TES_A_155

>  <ChemCompId>  (13) 
TES

>  <PdbId>  (13) 
2Q7L

>  <ChainId>  (13) 
A

>  <ResidueNumber>  (13) 
155

>  <InsertionCode>  (13) 


>  <Model>  (13) 
1

>  <AltIds>  (13) 


>  <MissingHeavyAtoms>  (13) 
0

>  <ObservedFormula>  (13) 
C19 O2

>  <AsymId>  (13) 
C

>  <SeqNum>  (13) 
155

>  <Name>  (13) 
TESTOSTERONE

>  <SystematicName>  (13) 
(8R,9S,10R,13S,14S,17S)-17-hydroxy-10,13-dimethyl-1,2,6,7,8,9,11,12,14,15,16,17-dodecahydrocyclopenta[a]phenanthren-3-one

>  <Synonyms>  (13) 


>  <Type>  (13) 
NON-POLYMER

>  <Formula>  (13) 
C19 H28 O2

>  <MolecularWeight>  (13) 
288.424

>  <ModifiedDate>  (13) 
2011-06-04

>  <Parent>  (13) 


>  <OneLetterCode>  (13) 


>  <SubcomponentList>  (13) 


>  <AmbiguousFlag>  (13) 
N

>  <InChI>  (13) 
null

>  <InChIKey>  (13) 
null

>  <SMILES>  (13) 
C[C@]12CC[C@H]3[C@H]([C@@H]1CC[C@@H]2O)CCC4=CC(=O)CC[C@]34C

>  <pKI>  (13) 
7.54

>  <ChemblID>  (13) 
CHEMBL386630

>  <standardized_canonical_smiles>  (13) 
C[C@]12CC[C@H]3[C@@H](CCC4=CC(=O)CC[C@@]43C)[C@@H]1CC[C@@H]2O

$$$$
2AO6_R18_A_1001
     RDKit          3D

 21 24  0  0  0  0  0  0  0  0999 V2000
   27.2230    5.6740    3.6940 C   0  0  0  0  0  0  0  0  0  0  0  0
   26.3530    6.8180    4.2060 C   0  0  0  0  0  0  0  0  0  0  0  0
   24.8960    6.6830    3.7900 C   0  0  0  0  0  0  0  0  0  0  0  0
   24.3220    5.3580    3.9950 C   0  0  0  0  0  0  0  0  0  0  0  0
   25.0940    4.2280    4.0720 C   0  0  0  0  0  0  0  0  0  0  0  0
   24.3940    2.8690    4.3110 C   0  0  0  0  0  0  0  0  0  0  0  0
   25.1900    1.7150    3.7000 C   0  0  0  0  0  0  0  0  0  0  0  0
   26.6350    1.7090    4.2960 C   0  0  0  0  0  0  0  0  0  0  0  0
   27.3540    3.0980    4.0390 C   0  0  0  0  0  0  0  0  0  0  0  0
   26.6080    4.2590    3.9420 C   0  0  0  0  0  0  0  0  0  0  0  0
   28.8360    3.0620    3.9340 C   0  0  0  0  0  0  0  0  0  0  0  0
   29.5820    1.9280    4.0330 C   0  0  0  0  0  0  0  0  0  0  0  0
   28.9390    0.5400    4.2460 C   0  0  0  0  0  0  0  0  0  0  0  0
   27.4720    0.5830    3.6920 C   0  0  0  0  0  0  0  0  0  0  0  0
   26.9510   -0.8690    3.8880 C   0  0  0  0  0  0  0  0  0  0  0  0
   28.2610   -1.6930    3.7160 C   0  0  0  0  0  0  0  0  0  0  0  0
   29.4430   -0.6890    3.4440 C   0  0  0  0  0  0  0  0  0  0  0  0
   28.9380    0.2760    5.8040 C   0  0  0  0  0  0  0  0  0  0  0  0
   29.5480   -0.4410    1.9370 C   0  0  0  0  0  0  0  0  0  0  0  0
   24.2400    7.6200    3.3440 O   0  0  0  0  0  0  0  0  0  0  0  0
   30.6520   -1.2580    3.9540 O   0  0  0  0  0  0  0  0  0  0  0  0
  2  1  1  0
 10  1  1  0
  3  2  1  0
  4  3  1  0
 20  3  2  0
  5  4  2  0
  6  5  1  0
 10  5  1  0
  7  6  1  0
  8  7  1  0
  9  8  1  0
 14  8  1  0
 10  9  2  0
 11  9  1  0
 12 11  2  0
 13 12  1  0
 14 13  1  0
 17 13  1  0
 18 13  1  0
 15 14  1  0
 16 15  1  0
 17 16  1  0
 19 17  1  0
 21 17  1  0
A    1
C1
A    2
C2
A    3
C3
A    4
C4
A    5
C5
A    6
C6
A    7
C7
A    8
C8
A    9
C9
A   10
C10
A   11
C11
A   12
C12
A   13
C13
A   14
C14
A   15
C15
A   16
C16
A   17
C17
A   18
C18
A   19
C27
A   20
O83
A   21
O97
M  END
>  <Id>  (14) 
2AO6_R18_A_1001

>  <ChainId>  (14) 
A

>  <AsymId>  (14) 
C

>  <SeqNum>  (14) 
1001

>  <Name>  (14) 
(17BETA)-17-HYDROXY-17-METHYLESTRA-4,9,11-TRIEN-3-ONE

>  <SystematicName>  (14) 
(8S,13S,14S,17S)-17-hydroxy-13,17-dimethyl-1,2,6,7,8,14,15,16-octahydrocyclopenta[a]phenanthren-3-one

>  <Synonyms>  (14) 
METHYLTRIENOLONE; 17BETA-HYDROXY-17METHYL-19NORANDROSTA-4,9,11-TRIEN-3-ONE; R1881

>  <Type>  (14) 
NON-POLYMER

>  <Formula>  (14) 
C19 H24 O2

>  <ObservedFormula>  (14) 
C19 O2

>  <MolecularWeight>  (14) 
284.393

>  <ModifiedDate>  (14) 
2011-06-04

>  <Parent>  (14) 


>  <OneLetterCode>  (14) 


>  <SubcomponentList>  (14) 


>  <AmbiguousFlag>  (14) 
N

>  <InsertionCode>  (14) 


>  <InstanceId>  (14) 
2AO6_R18_A_1001

>  <ChemCompId>  (14) 
R18

>  <PdbId>  (14) 
2AO6

>  <ResidueNumber>  (14) 
1001

>  <InChI>  (14) 
InChI=1S/C19H24O2/c1-18-9-7-15-14-6-4-13(20)11-12(14)3-5-16(15)17(18)8-10-19(18,2)21/h7,9,11,16-17,21H,3-6,8,10H2,1-2H3/t16-,17+,18+,19+/m1/s1

>  <InChIKey>  (14) 
CCCIJQPRIXGQOE-XWSJACJDSA-N

>  <SMILES>  (14) 
C[C@@]1(CC[C@@H]2[C@@]1(C=CC3=C4CCC(=O)C=C4CC[C@@H]23)C)O

>  <MissingHeavyAtoms>  (14) 
0

>  <Model>  (14) 
1

>  <AltIds>  (14) 


>  <pKI>  (14) 
9.4

>  <ChemblID>  (14) 
CHEMBL166444

>  <standardized_canonical_smiles>  (14) 
C[C@]1(O)CC[C@H]2[C@@H]3CCC4=CC(=O)CCC4=C3C=C[C@@]21C

$$$$
1XOW_R18_A_1001
     RDKit          3D

 21 24  0  0  0  0  0  0  0  0999 V2000
   27.2730    5.3280    3.7120 C   0  0  0  0  0  0  0  0  0  0  0  0
   26.4510    6.5420    4.1340 C   0  0  0  0  0  0  0  0  0  0  0  0
   24.9630    6.4080    3.9610 C   0  0  0  0  0  0  0  0  0  0  0  0
   24.4020    5.1070    4.2980 C   0  0  0  0  0  0  0  0  0  0  0  0
   25.1310    3.9470    4.3720 C   0  0  0  0  0  0  0  0  0  0  0  0
   24.4330    2.6110    4.7480 C   0  0  0  0  0  0  0  0  0  0  0  0
   25.1750    1.4490    4.0730 C   0  0  0  0  0  0  0  0  0  0  0  0
   26.6550    1.4300    4.4970 C   0  0  0  0  0  0  0  0  0  0  0  0
   27.3360    2.8010    4.1460 C   0  0  0  0  0  0  0  0  0  0  0  0
   26.6220    3.9420    4.0680 C   0  0  0  0  0  0  0  0  0  0  0  0
   28.8100    2.7460    3.9390 C   0  0  0  0  0  0  0  0  0  0  0  0
   29.5530    1.6240    4.0180 C   0  0  0  0  0  0  0  0  0  0  0  0
   28.9480    0.2640    4.3110 C   0  0  0  0  0  0  0  0  0  0  0  0
   27.4610    0.2610    3.8450 C   0  0  0  0  0  0  0  0  0  0  0  0
   26.9340   -1.1800    4.1400 C   0  0  0  0  0  0  0  0  0  0  0  0
   28.2410   -1.9740    3.8510 C   0  0  0  0  0  0  0  0  0  0  0  0
   29.4280   -0.9660    3.5200 C   0  0  0  0  0  0  0  0  0  0  0  0
   29.0060    0.0310    5.8840 C   0  0  0  0  0  0  0  0  0  0  0  0
   29.4750   -0.7980    2.0210 C   0  0  0  0  0  0  0  0  0  0  0  0
   24.2470    7.3520    3.6270 O   0  0  0  0  0  0  0  0  0  0  0  0
   30.6330   -1.5560    4.0600 O   0  0  0  0  0  0  0  0  0  0  0  0
  2  1  1  0
 10  1  1  0
  3  2  1  0
  4  3  1  0
 20  3  2  0
  5  4  2  0
  6  5  1  0
 10  5  1  0
  7  6  1  0
  8  7  1  0
  9  8  1  0
 14  8  1  0
 10  9  2  0
 11  9  1  0
 12 11  2  0
 13 12  1  0
 14 13  1  0
 17 13  1  0
 18 13  1  0
 15 14  1  0
 16 15  1  0
 17 16  1  0
 19 17  1  0
 21 17  1  0
A    1
C1
A    2
C2
A    3
C3
A    4
C4
A    5
C5
A    6
C6
A    7
C7
A    8
C8
A    9
C9
A   10
C10
A   11
C11
A   12
C12
A   13
C13
A   14
C14
A   15
C15
A   16
C16
A   17
C17
A   18
C18
A   19
C27
A   20
O83
A   21
O97
M  END
>  <Id>  (15) 
1XOW_R18_A_1001

>  <ChainId>  (15) 
A

>  <AsymId>  (15) 
C

>  <SeqNum>  (15) 
1001

>  <Name>  (15) 
(17BETA)-17-HYDROXY-17-METHYLESTRA-4,9,11-TRIEN-3-ONE

>  <SystematicName>  (15) 
(8S,13S,14S,17S)-17-hydroxy-13,17-dimethyl-1,2,6,7,8,14,15,16-octahydrocyclopenta[a]phenanthren-3-one

>  <Synonyms>  (15) 
METHYLTRIENOLONE; 17BETA-HYDROXY-17METHYL-19NORANDROSTA-4,9,11-TRIEN-3-ONE; R1881

>  <Type>  (15) 
NON-POLYMER

>  <Formula>  (15) 
C19 H24 O2

>  <ObservedFormula>  (15) 
C19 O2

>  <MolecularWeight>  (15) 
284.393

>  <ModifiedDate>  (15) 
2011-06-04

>  <Parent>  (15) 


>  <OneLetterCode>  (15) 


>  <SubcomponentList>  (15) 


>  <AmbiguousFlag>  (15) 
N

>  <InsertionCode>  (15) 


>  <InstanceId>  (15) 
1XOW_R18_A_1001

>  <ChemCompId>  (15) 
R18

>  <PdbId>  (15) 
1XOW

>  <ResidueNumber>  (15) 
1001

>  <InChI>  (15) 
InChI=1S/C19H24O2/c1-18-9-7-15-14-6-4-13(20)11-12(14)3-5-16(15)17(18)8-10-19(18,2)21/h7,9,11,16-17,21H,3-6,8,10H2,1-2H3/t16-,17+,18+,19+/m1/s1

>  <InChIKey>  (15) 
CCCIJQPRIXGQOE-XWSJACJDSA-N

>  <SMILES>  (15) 
C[C@@]1(CC[C@@H]2[C@@]1(C=CC3=C4CCC(=O)C=C4CC[C@@H]23)C)O

>  <MissingHeavyAtoms>  (15) 
0

>  <Model>  (15) 
1

>  <AltIds>  (15) 


>  <pKI>  (15) 
9.4

>  <ChemblID>  (15) 
CHEMBL166444

>  <standardized_canonical_smiles>  (15) 
C[C@]1(O)CC[C@H]2[C@@H]3CCC4=CC(=O)CCC4=C3C=C[C@@]21C

$$$$
1XQ3_R18_A_1001
     RDKit          3D

 21 24  0  0  0  0  0  0  0  0999 V2000
   27.4940    5.2850    4.1900 C   0  0  0  0  0  0  0  0  0  0  0  0
   26.7470    6.4970    4.7060 C   0  0  0  0  0  0  0  0  0  0  0  0
   25.2330    6.3980    4.5620 C   0  0  0  0  0  0  0  0  0  0  0  0
   24.6340    5.0950    4.8740 C   0  0  0  0  0  0  0  0  0  0  0  0
   25.3640    3.9320    4.8880 C   0  0  0  0  0  0  0  0  0  0  0  0
   24.6540    2.6020    5.2490 C   0  0  0  0  0  0  0  0  0  0  0  0
   25.3420    1.4070    4.5670 C   0  0  0  0  0  0  0  0  0  0  0  0
   26.8550    1.3660    4.9980 C   0  0  0  0  0  0  0  0  0  0  0  0
   27.5720    2.7160    4.6180 C   0  0  0  0  0  0  0  0  0  0  0  0
   26.8490    3.9020    4.5640 C   0  0  0  0  0  0  0  0  0  0  0  0
   29.0460    2.6280    4.3450 C   0  0  0  0  0  0  0  0  0  0  0  0
   29.7660    1.4680    4.4050 C   0  0  0  0  0  0  0  0  0  0  0  0
   29.1060    0.1080    4.7270 C   0  0  0  0  0  0  0  0  0  0  0  0
   27.6020    0.1930    4.3310 C   0  0  0  0  0  0  0  0  0  0  0  0
   27.0700   -1.2390    4.6190 C   0  0  0  0  0  0  0  0  0  0  0  0
   28.3240   -2.1150    4.3290 C   0  0  0  0  0  0  0  0  0  0  0  0
   29.4830   -1.1480    3.9060 C   0  0  0  0  0  0  0  0  0  0  0  0
   29.2420   -0.1400    6.2900 C   0  0  0  0  0  0  0  0  0  0  0  0
   29.4390   -0.9470    2.3970 C   0  0  0  0  0  0  0  0  0  0  0  0
   24.5610    7.3540    4.2340 O   0  0  0  0  0  0  0  0  0  0  0  0
   30.7200   -1.7200    4.2830 O   0  0  0  0  0  0  0  0  0  0  0  0
  2  1  1  0
 10  1  1  0
  3  2  1  0
  4  3  1  0
 20  3  2  0
  5  4  2  0
  6  5  1  0
 10  5  1  0
  7  6  1  0
  8  7  1  0
  9  8  1  0
 14  8  1  0
 10  9  2  0
 11  9  1  0
 12 11  2  0
 13 12  1  0
 14 13  1  0
 17 13  1  0
 18 13  1  0
 15 14  1  0
 16 15  1  0
 17 16  1  0
 19 17  1  0
 21 17  1  0
A    1
C1
A    2
C2
A    3
C3
A    4
C4
A    5
C5
A    6
C6
A    7
C7
A    8
C8
A    9
C9
A   10
C10
A   11
C11
A   12
C12
A   13
C13
A   14
C14
A   15
C15
A   16
C16
A   17
C17
A   18
C18
A   19
C27
A   20
O83
A   21
O97
M  END
>  <Id>  (16) 
1XQ3_R18_A_1001

>  <ChainId>  (16) 
A

>  <AsymId>  (16) 
B

>  <SeqNum>  (16) 
1001

>  <Name>  (16) 
(17BETA)-17-HYDROXY-17-METHYLESTRA-4,9,11-TRIEN-3-ONE

>  <SystematicName>  (16) 
(8S,13S,14S,17S)-17-hydroxy-13,17-dimethyl-1,2,6,7,8,14,15,16-octahydrocyclopenta[a]phenanthren-3-one

>  <Synonyms>  (16) 
METHYLTRIENOLONE; 17BETA-HYDROXY-17METHYL-19NORANDROSTA-4,9,11-TRIEN-3-ONE; R1881

>  <Type>  (16) 
NON-POLYMER

>  <Formula>  (16) 
C19 H24 O2

>  <ObservedFormula>  (16) 
C19 O2

>  <MolecularWeight>  (16) 
284.393

>  <ModifiedDate>  (16) 
2011-06-04

>  <Parent>  (16) 


>  <OneLetterCode>  (16) 


>  <SubcomponentList>  (16) 


>  <AmbiguousFlag>  (16) 
N

>  <InsertionCode>  (16) 


>  <InstanceId>  (16) 
1XQ3_R18_A_1001

>  <ChemCompId>  (16) 
R18

>  <PdbId>  (16) 
1XQ3

>  <ResidueNumber>  (16) 
1001

>  <InChI>  (16) 
InChI=1S/C19H24O2/c1-18-9-7-15-14-6-4-13(20)11-12(14)3-5-16(15)17(18)8-10-19(18,2)21/h7,9,11,16-17,21H,3-6,8,10H2,1-2H3/t16-,17+,18+,19+/m1/s1

>  <InChIKey>  (16) 
CCCIJQPRIXGQOE-XWSJACJDSA-N

>  <SMILES>  (16) 
C[C@@]1(CC[C@@H]2[C@@]1(C=CC3=C4CCC(=O)C=C4CC[C@@H]23)C)O

>  <MissingHeavyAtoms>  (16) 
0

>  <Model>  (16) 
1

>  <AltIds>  (16) 


>  <pKI>  (16) 
9.4

>  <ChemblID>  (16) 
CHEMBL166444

>  <standardized_canonical_smiles>  (16) 
C[C@]1(O)CC[C@H]2[C@@H]3CCC4=CC(=O)CCC4=C3C=C[C@@]21C

$$$$
1E3G_R18_A_1000
     RDKit          3D

 21 24  0  0  0  0  0  0  0  0999 V2000
    0.4140   28.0700    4.1030 C   0  0  0  0  0  0  0  0  0  0  0  0
    1.1950   26.9990    4.8320 C   0  0  0  0  0  0  0  0  0  0  0  0
    2.6610   27.1400    4.5320 C   0  0  0  0  0  0  0  0  0  0  0  0
    3.1740   28.4570    4.7940 C   0  0  0  0  0  0  0  0  0  0  0  0
    2.3670   29.5530    4.7800 C   0  0  0  0  0  0  0  0  0  0  0  0
    2.9730   30.9060    5.1160 C   0  0  0  0  0  0  0  0  0  0  0  0
    2.2070   32.0300    4.4570 C   0  0  0  0  0  0  0  0  0  0  0  0
    0.7330   31.9620    4.8980 C   0  0  0  0  0  0  0  0  0  0  0  0
    0.1240   30.5970    4.5140 C   0  0  0  0  0  0  0  0  0  0  0  0
    0.9120   29.4800    4.4760 C   0  0  0  0  0  0  0  0  0  0  0  0
   -1.3160   30.5830    4.2510 C   0  0  0  0  0  0  0  0  0  0  0  0
   -2.1020   31.6750    4.3100 C   0  0  0  0  0  0  0  0  0  0  0  0
   -1.5350   33.0390    4.6640 C   0  0  0  0  0  0  0  0  0  0  0  0
   -0.0560   33.0660    4.2610 C   0  0  0  0  0  0  0  0  0  0  0  0
    0.3870   34.5090    4.5720 C   0  0  0  0  0  0  0  0  0  0  0  0
   -0.8990   35.2990    4.3110 C   0  0  0  0  0  0  0  0  0  0  0  0
   -2.0010   34.2820    3.9000 C   0  0  0  0  0  0  0  0  0  0  0  0
   -1.7250   33.2280    6.1890 C   0  0  0  0  0  0  0  0  0  0  0  0
   -2.0340   34.0500    2.4120 C   0  0  0  0  0  0  0  0  0  0  0  0
    3.3750   26.2120    4.1620 O   0  0  0  0  0  0  0  0  0  0  0  0
   -3.2570   34.7970    4.3450 O   0  0  0  0  0  0  0  0  0  0  0  0
  2  1  1  0
 10  1  1  0
  3  2  1  0
  4  3  1  0
 20  3  2  0
  5  4  2  0
  6  5  1  0
 10  5  1  0
  7  6  1  0
  8  7  1  0
  9  8  1  0
 14  8  1  0
 10  9  2  0
 11  9  1  0
 12 11  2  0
 13 12  1  0
 14 13  1  0
 17 13  1  0
 18 13  1  0
 15 14  1  0
 16 15  1  0
 17 16  1  0
 19 17  1  0
 21 17  1  0
A    1
C1
A    2
C2
A    3
C3
A    4
C4
A    5
C5
A    6
C6
A    7
C7
A    8
C8
A    9
C9
A   10
C10
A   11
C11
A   12
C12
A   13
C13
A   14
C14
A   15
C15
A   16
C16
A   17
C17
A   18
C18
A   19
C27
A   20
O83
A   21
O97
M  END
>  <Id>  (17) 
1E3G_R18_A_1000

>  <ChainId>  (17) 
A

>  <AsymId>  (17) 
B

>  <SeqNum>  (17) 
1000

>  <Name>  (17) 
(17BETA)-17-HYDROXY-17-METHYLESTRA-4,9,11-TRIEN-3-ONE

>  <SystematicName>  (17) 
(8S,13S,14S,17S)-17-hydroxy-13,17-dimethyl-1,2,6,7,8,14,15,16-octahydrocyclopenta[a]phenanthren-3-one

>  <Synonyms>  (17) 
METHYLTRIENOLONE; 17BETA-HYDROXY-17METHYL-19NORANDROSTA-4,9,11-TRIEN-3-ONE; R1881

>  <Type>  (17) 
NON-POLYMER

>  <Formula>  (17) 
C19 H24 O2

>  <ObservedFormula>  (17) 
C19 O2

>  <MolecularWeight>  (17) 
284.393

>  <ModifiedDate>  (17) 
2011-06-04

>  <Parent>  (17) 


>  <OneLetterCode>  (17) 


>  <SubcomponentList>  (17) 


>  <AmbiguousFlag>  (17) 
N

>  <InsertionCode>  (17) 


>  <InstanceId>  (17) 
1E3G_R18_A_1000

>  <ChemCompId>  (17) 
R18

>  <PdbId>  (17) 
1E3G

>  <ResidueNumber>  (17) 
1000

>  <InChI>  (17) 
InChI=1S/C19H24O2/c1-18-9-7-15-14-6-4-13(20)11-12(14)3-5-16(15)17(18)8-10-19(18,2)21/h7,9,11,16-17,21H,3-6,8,10H2,1-2H3/t16-,17+,18+,19+/m1/s1

>  <InChIKey>  (17) 
CCCIJQPRIXGQOE-XWSJACJDSA-N

>  <SMILES>  (17) 
C[C@@]1(CC[C@@H]2[C@@]1(C=CC3=C4CCC(=O)C=C4CC[C@@H]23)C)O

>  <MissingHeavyAtoms>  (17) 
0

>  <Model>  (17) 
1

>  <AltIds>  (17) 


>  <pKI>  (17) 
9.4

>  <ChemblID>  (17) 
CHEMBL166444

>  <standardized_canonical_smiles>  (17) 
C[C@]1(O)CC[C@H]2[C@@H]3CCC4=CC(=O)CCC4=C3C=C[C@@]21C

$$$$
2HVC_LGD_A_2226
     RDKit          3D

 26 27  0  0  0  0  0  0  0  0999 V2000
    1.9340   25.8520    4.6770 N   0  0  0  0  0  0  0  0  0  0  0  0
    3.3210   25.6260    4.7650 C   0  0  0  0  0  0  0  0  0  0  0  0
    4.2310   26.7400    4.9300 C   0  0  0  0  0  0  0  0  0  0  0  0
    3.7160   28.1130    5.0010 C   0  0  0  0  0  0  0  0  0  0  0  0
    4.4960   29.9010    6.3800 F   0  0  0  0  0  0  0  0  0  0  0  0
    6.0420   28.8460    5.2560 F   0  0  0  0  0  0  0  0  0  0  0  0
    4.6510   30.2950    4.2880 F   0  0  0  0  0  0  0  0  0  0  0  0
    2.2600   28.3290    4.9030 C   0  0  0  0  0  0  0  0  0  0  0  0
    1.6350   29.6370    4.9550 C   0  0  0  0  0  0  0  0  0  0  0  0
    0.1990   29.8400    4.8680 C   0  0  0  0  0  0  0  0  0  0  0  0
   -0.6400   28.6270    4.7170 C   0  0  0  0  0  0  0  0  0  0  0  0
   -0.0610   27.3060    4.6500 C   0  0  0  0  0  0  0  0  0  0  0  0
    1.3690   27.1430    4.7380 C   0  0  0  0  0  0  0  0  0  0  0  0
    4.7600   29.3240    5.1990 C   0  0  0  0  0  0  0  0  0  0  0  0
   -1.8550   31.5670    4.9150 C   0  0  0  0  0  0  0  0  0  0  0  0
   -0.3620   31.2670    4.9370 N   0  0  0  0  0  0  0  0  0  0  0  0
    0.5070   32.4560    4.7940 C   0  0  0  0  0  0  0  0  0  0  0  0
   -3.6400   31.7120    5.9470 F   0  0  0  0  0  0  0  0  0  0  0  0
   -2.5160   30.1680    6.6510 F   0  0  0  0  0  0  0  0  0  0  0  0
   -1.9250   32.0570    7.2650 F   0  0  0  0  0  0  0  0  0  0  0  0
   -2.3970   31.3550    6.2240 C   0  0  0  0  0  0  0  0  0  0  0  0
    0.4080   34.3030    4.1280 F   0  0  0  0  0  0  0  0  0  0  0  0
    1.9790   33.1860    3.4670 F   0  0  0  0  0  0  0  0  0  0  0  0
    0.1470   32.8420    2.5910 F   0  0  0  0  0  0  0  0  0  0  0  0
    0.7660   33.1050    3.7470 C   0  0  0  0  0  0  0  0  0  0  0  0
    3.7340   24.4790    4.7060 O   0  0  0  0  0  0  0  0  0  0  0  0
  2  1  1  0
 13  1  1  0
  3  2  1  0
 26  2  2  0
  4  3  2  0
  8  4  1  0
 14  4  1  0
 14  5  1  0
 14  6  1  0
 14  7  1  0
  9  8  1  0
 13  8  2  0
 10  9  2  0
 11 10  1  0
 16 10  1  0
 12 11  2  0
 13 12  1  0
 16 15  1  0
 21 15  1  0
 17 16  1  0
 25 17  1  0
 21 18  1  0
 21 19  1  0
 21 20  1  0
 25 22  1  0
 25 23  1  0
 25 24  1  0
A    1
N1
A    2
C2
A    3
C3
A    4
C4
A    5
F1
A    6
F2
A    7
F3
A    8
C5
A    9
C6
A   10
C7
A   11
C8
A   12
C9
A   13
C10
A   14
C11
A   15
C12
A   16
N13
A   17
C14
A   18
F4
A   19
F5
A   20
F6
A   21
C15
A   22
F7
A   23
F8
A   24
F9
A   25
C16
A   26
O21
M  END
>  <Id>  (18) 
2HVC_LGD_A_2226

>  <ChainId>  (18) 
A

>  <AsymId>  (18) 
B

>  <SeqNum>  (18) 
2226

>  <Name>  (18) 
6-[BIS(2,2,2-TRIFLUOROETHYL)AMINO]-4-(TRIFLUOROMETHYL)QUINOLIN-2(1H)-ONE

>  <SystematicName>  (18) 
6-(bis(2,2,2-trifluoroethyl)amino)-4-(trifluoromethyl)-1H-quinolin-2-one

>  <Synonyms>  (18) 
1,2-DIHYDRO-6-N,N-BIS(2,2,2-TRIFLUOROETHYL)AMINO-4-TRIFLUOROMETHYL-2-QUINOLINONE

>  <Type>  (18) 
NON-POLYMER

>  <Formula>  (18) 
C14 H9 F9 N2 O

>  <ObservedFormula>  (18) 
C14 F9 N2 O

>  <MolecularWeight>  (18) 
392.22

>  <ModifiedDate>  (18) 
2011-06-04

>  <Parent>  (18) 


>  <OneLetterCode>  (18) 


>  <SubcomponentList>  (18) 


>  <AmbiguousFlag>  (18) 


>  <InsertionCode>  (18) 


>  <InstanceId>  (18) 
2HVC_LGD_A_2226

>  <ChemCompId>  (18) 
LGD

>  <PdbId>  (18) 
2HVC

>  <ResidueNumber>  (18) 
2226

>  <InChI>  (18) 
InChI=1S/C14H9F9N2O/c15-12(16,17)5-25(6-13(18,19)20)7-1-2-10-8(3-7)9(14(21,22)23)4-11(26)24-10/h1-4H,5-6H2,(H,24,26)

>  <InChIKey>  (18) 
ULBPQWIGZUGPHU-UHFFFAOYSA-N

>  <SMILES>  (18) 
c1cc2c(cc1N(CC(F)(F)F)CC(F)(F)F)C(=CC(=O)N2)C(F)(F)F

>  <MissingHeavyAtoms>  (18) 
0

>  <Model>  (18) 
1

>  <AltIds>  (18) 


>  <pKI>  (18) 
8.72

>  <ChemblID>  (18) 
CHEMBL436784

>  <standardized_canonical_smiles>  (18) 
O=c1cc(C(F)(F)F)c2cc(N(CC(F)(F)F)CC(F)(F)F)ccc2[nH]1

$$$$
3B68_B68_A_1
     RDKit          3D

 31 32  0  0  0  0  0  0  0  0999 V2000
   29.5300   -0.1530   14.0740 C   0  0  0  0  0  0  0  0  0  0  0  0
   30.0740   -0.0310   12.6490 C   0  0  0  0  0  0  0  0  0  0  0  0
   31.1890   -0.4680   12.3650 O   0  0  0  0  0  0  0  0  0  0  0  0
   29.2660    0.5970   11.7970 N   0  0  0  0  0  0  0  0  0  0  0  0
   29.5320    0.8060   10.5070 C   0  0  0  0  0  0  0  0  0  0  0  0
   30.7030    0.3490    9.9050 C   0  0  0  0  0  0  0  0  0  0  0  0
   30.9330    0.5700    8.5500 C   0  0  0  0  0  0  0  0  0  0  0  0
   28.5950    1.4870    9.7360 C   0  0  0  0  0  0  0  0  0  0  0  0
   28.8200    1.7080    8.3800 C   0  0  0  0  0  0  0  0  0  0  0  0
   29.9910    1.2480    7.7820 C   0  0  0  0  0  0  0  0  0  0  0  0
   30.2290    1.5120    6.4680 O   0  0  0  0  0  0  0  0  0  0  0  0
   29.9660    0.3720    5.6340 C   0  0  0  0  0  0  0  0  0  0  0  0
   29.7360    0.8170    4.1980 C   0  0  0  0  0  0  0  0  0  0  0  0
   30.8080    1.6700    3.7880 O   0  0  0  0  0  0  0  0  0  0  0  0
   29.6590   -0.4110    3.2890 C   0  0  0  0  0  0  0  0  0  0  0  0
   28.4240    1.6000    4.1380 C   0  0  0  0  0  0  0  0  0  0  0  0
   27.3540    1.0420    4.3760 O   0  0  0  0  0  0  0  0  0  0  0  0
   28.5640    2.8920    3.8460 N   0  0  0  0  0  0  0  0  0  0  0  0
   27.5700    3.7740    3.7430 C   0  0  0  0  0  0  0  0  0  0  0  0
   26.2350    3.4430    3.9690 C   0  0  0  0  0  0  0  0  0  0  0  0
   27.8860    5.0910    3.4350 C   0  0  0  0  0  0  0  0  0  0  0  0
   26.8720    6.0420    3.3750 C   0  0  0  0  0  0  0  0  0  0  0  0
   25.5430    5.7060    3.6190 C   0  0  0  0  0  0  0  0  0  0  0  0
   24.6680    6.7110    3.5770 N   0  0  0  0  0  0  0  0  0  0  0  0
   23.3010    6.5660    3.9340 O   0  0  0  0  0  0  0  0  0  0  0  0
   25.1230    8.0190    3.2620 O   0  0  0  0  0  0  0  0  0  0  0  0
   25.2030    4.3800    3.9100 C   0  0  0  0  0  0  0  0  0  0  0  0
   23.7570    3.8990    4.1370 C   0  0  0  0  0  0  0  0  0  0  0  0
   23.3000    4.3270    5.3100 F   0  0  0  0  0  0  0  0  0  0  0  0
   22.9170    4.3100    3.1910 F   0  0  0  0  0  0  0  0  0  0  0  0
   23.6710    2.5720    4.1530 F   0  0  0  0  0  0  0  0  0  0  0  0
  2  1  1  0
  3  2  2  0
  4  2  1  0
  5  4  1  0
  6  5  2  0
  8  5  1  0
  7  6  1  0
 10  7  2  0
  9  8  2  0
 10  9  1  0
 11 10  1  0
 12 11  1  0
 13 12  1  0
 14 13  1  0
 15 13  1  0
 16 13  1  0
 17 16  2  0
 18 16  1  0
 19 18  1  0
 20 19  2  0
 21 19  1  0
 27 20  1  0
 22 21  2  0
 23 22  1  0
 24 23  1  0
 27 23  2  0
 25 24  1  0
 26 24  2  0
 28 27  1  0
 29 28  1  0
 30 28  1  0
 31 28  1  0
M  CHG  2  24   1  25  -1
A    1
C24
A    2
C23
A    3
O23
A    4
N22
A    5
C19
A    6
C18
A    7
C17
A    8
C20
A    9
C21
A   10
C16
A   11
O14
A   12
C13
A   13
C11
A   14
O11
A   15
C12
A   16
C10
A   17
O10
A   18
N9
A   19
C6
A   20
C5
A   21
C1
A   22
C2
A   23
C3
A   24
N8
A   25
O1
A   26
O2
A   27
C4
A   28
C7
A   29
F2
A   30
F1
A   31
F3
M  END
>  <Id>  (19) 
3B68_B68_A_1

>  <ChainId>  (19) 
A

>  <AsymId>  (19) 
B

>  <SeqNum>  (19) 
1

>  <Name>  (19) 
(2S)-3-[4-(acetylamino)phenoxy]-2-hydroxy-2-methyl-N-[4-nitro-3-(trifluoromethyl)phenyl]propanamide

>  <SystematicName>  (19) 
(2S)-3-(4-acetamidophenoxy)-2-hydroxy-2-methyl-N-[4-nitro-3-(trifluoromethyl)phenyl]propanamide

>  <Synonyms>  (19) 


>  <Type>  (19) 
NON-POLYMER

>  <Formula>  (19) 
C19 H18 F3 N3 O6

>  <ObservedFormula>  (19) 
C19 F3 N3 O6

>  <MolecularWeight>  (19) 
441.358

>  <ModifiedDate>  (19) 
2011-06-04

>  <Parent>  (19) 


>  <OneLetterCode>  (19) 


>  <SubcomponentList>  (19) 


>  <AmbiguousFlag>  (19) 
N

>  <InsertionCode>  (19) 


>  <InstanceId>  (19) 
3B68_B68_A_1

>  <ChemCompId>  (19) 
B68

>  <PdbId>  (19) 
3B68

>  <ResidueNumber>  (19) 
1

>  <InChI>  (19) 
InChI=1S/C19H18F3N3O6/c1-11(26)23-12-3-6-14(7-4-12)31-10-18(2,28)17(27)24-13-5-8-16(25(29)30)15(9-13)19(20,21)22/h3-9,28H,10H2,1-2H3,(H,23,26)(H,24,27)/t18-/m0/s1

>  <InChIKey>  (19) 
YVXVTLGIDOACBJ-SFHVURJKSA-N

>  <SMILES>  (19) 
CC(=O)Nc1ccc(cc1)OC[C@@](C)(C(=O)Nc2ccc(c(c2)C(F)(F)F)[N+](=O)[O-])O

>  <MissingHeavyAtoms>  (19) 
0

>  <Model>  (19) 
1

>  <AltIds>  (19) 


>  <pKI>  (19) 
8.4

>  <ChemblID>  (19) 
CHEMBL125236

>  <standardized_canonical_smiles>  (19) 
CC(=O)Nc1ccc(OC[C@](C)(O)C(=O)Nc2ccc([N+](=O)[O-])c(C(F)(F)F)c2)cc1

$$$$
2AXA_FHM_A_1
     RDKit          3D

 28 29  0  0  0  0  0  0  0  0999 V2000
   30.4130    0.1240    8.4630 C   0  0  0  0  0  0  0  0  0  0  0  0
   30.2030   -0.1420    9.8140 C   0  0  0  0  0  0  0  0  0  0  0  0
   29.3500    0.6640   10.5610 C   0  0  0  0  0  0  0  0  0  0  0  0
   29.1660    0.4280   11.8760 F   0  0  0  0  0  0  0  0  0  0  0  0
   28.7030    1.7370    9.9530 C   0  0  0  0  0  0  0  0  0  0  0  0
   28.9150    2.0020    8.6030 C   0  0  0  0  0  0  0  0  0  0  0  0
   29.7690    1.1990    7.8530 C   0  0  0  0  0  0  0  0  0  0  0  0
   29.9340    1.4920    6.5330 O   0  0  0  0  0  0  0  0  0  0  0  0
   29.9980    0.3430    5.6730 C   0  0  0  0  0  0  0  0  0  0  0  0
   29.7730    0.8090    4.2420 C   0  0  0  0  0  0  0  0  0  0  0  0
   30.8400    1.6800    3.8580 O   0  0  0  0  0  0  0  0  0  0  0  0
   29.7160   -0.4060    3.3140 C   0  0  0  0  0  0  0  0  0  0  0  0
   28.4490    1.5720    4.1710 C   0  0  0  0  0  0  0  0  0  0  0  0
   27.3840    1.0000    4.4000 O   0  0  0  0  0  0  0  0  0  0  0  0
   28.5730    2.8620    3.8660 N   0  0  0  0  0  0  0  0  0  0  0  0
   27.5770    3.7420    3.7520 C   0  0  0  0  0  0  0  0  0  0  0  0
   26.2460    3.4220    4.0060 C   0  0  0  0  0  0  0  0  0  0  0  0
   27.8990    5.0550    3.4280 C   0  0  0  0  0  0  0  0  0  0  0  0
   26.8960    6.0180    3.3860 C   0  0  0  0  0  0  0  0  0  0  0  0
   25.5710    5.6970    3.6650 C   0  0  0  0  0  0  0  0  0  0  0  0
   24.7020    6.7100    3.6330 N   0  0  0  0  0  0  0  0  0  0  0  0
   23.3630    6.5930    4.0900 O   0  0  0  0  0  0  0  0  0  0  0  0
   25.1510    8.0070    3.2720 O   0  0  0  0  0  0  0  0  0  0  0  0
   25.2270    4.3760    3.9650 C   0  0  0  0  0  0  0  0  0  0  0  0
   23.7770    3.9120    4.2010 C   0  0  0  0  0  0  0  0  0  0  0  0
   23.3770    4.2740    5.4160 F   0  0  0  0  0  0  0  0  0  0  0  0
   22.9280    4.4040    3.3040 F   0  0  0  0  0  0  0  0  0  0  0  0
   23.6470    2.5910    4.1190 F   0  0  0  0  0  0  0  0  0  0  0  0
  2  1  2  0
  7  1  1  0
  3  2  1  0
  4  3  1  0
  5  3  2  0
  6  5  1  0
  7  6  2  0
  8  7  1  0
  9  8  1  0
 10  9  1  0
 11 10  1  0
 12 10  1  0
 13 10  1  0
 14 13  2  0
 15 13  1  0
 16 15  1  0
 17 16  2  0
 18 16  1  0
 24 17  1  0
 19 18  2  0
 20 19  1  0
 21 20  1  0
 24 20  2  0
 22 21  2  0
 23 21  1  0
 25 24  1  0
 26 25  1  0
 27 25  1  0
 28 25  1  0
M  CHG  2  21   1  23  -1
A    1
C17
A    2
C18
A    3
C19
A    4
F19
A    5
C20
A    6
C21
A    7
C16
A    8
O14
A    9
C13
A   10
C11
A   11
O11
A   12
C12
A   13
C10
A   14
O10
A   15
N9
A   16
C6
A   17
C5
A   18
C1
A   19
C2
A   20
C3
A   21
N8
A   22
O2
A   23
O1
A   24
C4
A   25
C7
A   26
F2
A   27
F3
A   28
F1
M  END
>  <Id>  (20) 
2AXA_FHM_A_1

>  <ChainId>  (20) 
A

>  <AsymId>  (20) 
B

>  <SeqNum>  (20) 
1

>  <Name>  (20) 
S-3-(4-FLUOROPHENOXY)-2-HYDROXY-2-METHYL-N-[4-NITRO-3-(TRIFLUOROMETHYL)PHENYL]PROPANAMIDE

>  <SystematicName>  (20) 
(2S)-3-(4-fluorophenoxy)-2-hydroxy-2-methyl-N-[4-nitro-3-(trifluoromethyl)phenyl]propanamide

>  <Synonyms>  (20) 


>  <Type>  (20) 
NON-POLYMER

>  <Formula>  (20) 
C17 H14 F4 N2 O5

>  <ObservedFormula>  (20) 
C17 F4 N2 O5

>  <MolecularWeight>  (20) 
402.297

>  <ModifiedDate>  (20) 
2011-06-04

>  <Parent>  (20) 


>  <OneLetterCode>  (20) 


>  <SubcomponentList>  (20) 


>  <AmbiguousFlag>  (20) 
N

>  <InsertionCode>  (20) 


>  <InstanceId>  (20) 
2AXA_FHM_A_1

>  <ChemCompId>  (20) 
FHM

>  <PdbId>  (20) 
2AXA

>  <ResidueNumber>  (20) 
1

>  <InChI>  (20) 
InChI=1S/C17H14F4N2O5/c1-16(25,9-28-12-5-2-10(18)3-6-12)15(24)22-11-4-7-14(23(26)27)13(8-11)17(19,20)21/h2-8,25H,9H2,1H3,(H,22,24)/t16-/m0/s1

>  <InChIKey>  (20) 
KJMFOTCDISOHDX-INIZCTEOSA-N

>  <SMILES>  (20) 
C[C@](COc1ccc(cc1)F)(C(=O)Nc2ccc(c(c2)C(F)(F)F)[N+](=O)[O-])O

>  <MissingHeavyAtoms>  (20) 
0

>  <Model>  (20) 
1

>  <AltIds>  (20) 


>  <pKI>  (20) 
8.21

>  <ChemblID>  (20) 
CHEMBL124718

>  <standardized_canonical_smiles>  (20) 
C[C@](O)(COc1ccc(F)cc1)C(=O)Nc1ccc([N+](=O)[O-])c(C(F)(F)F)c1

$$$$
2AX7_FHM_A_1
     RDKit          3D

 28 29  0  0  0  0  0  0  0  0999 V2000
   30.0580   -0.2160    8.2470 C   0  0  0  0  0  0  0  0  0  0  0  0
   29.8180   -0.4570    9.5980 C   0  0  0  0  0  0  0  0  0  0  0  0
   29.1790    0.5040   10.3760 C   0  0  0  0  0  0  0  0  0  0  0  0
   28.9520    0.2740   11.6860 F   0  0  0  0  0  0  0  0  0  0  0  0
   28.7780    1.7050    9.7990 C   0  0  0  0  0  0  0  0  0  0  0  0
   29.0200    1.9430    8.4490 C   0  0  0  0  0  0  0  0  0  0  0  0
   29.6610    0.9870    7.6660 C   0  0  0  0  0  0  0  0  0  0  0  0
   29.8980    1.2770    6.3570 O   0  0  0  0  0  0  0  0  0  0  0  0
   29.8800    0.1480    5.4680 C   0  0  0  0  0  0  0  0  0  0  0  0
   29.6840    0.6630    4.0510 C   0  0  0  0  0  0  0  0  0  0  0  0
   30.7730    1.5270    3.7180 O   0  0  0  0  0  0  0  0  0  0  0  0
   29.6350   -0.5150    3.0750 C   0  0  0  0  0  0  0  0  0  0  0  0
   28.3710    1.4480    3.9910 C   0  0  0  0  0  0  0  0  0  0  0  0
   27.2920    0.8750    4.1350 O   0  0  0  0  0  0  0  0  0  0  0  0
   28.5180    2.7530    3.7670 N   0  0  0  0  0  0  0  0  0  0  0  0
   27.5380    3.6530    3.6880 C   0  0  0  0  0  0  0  0  0  0  0  0
   26.2000    3.3510    3.9290 C   0  0  0  0  0  0  0  0  0  0  0  0
   27.8830    4.9770    3.4390 C   0  0  0  0  0  0  0  0  0  0  0  0
   26.8980    5.9600    3.4480 C   0  0  0  0  0  0  0  0  0  0  0  0
   25.5650    5.6510    3.7100 C   0  0  0  0  0  0  0  0  0  0  0  0
   24.7180    6.6810    3.7420 N   0  0  0  0  0  0  0  0  0  0  0  0
   23.3590    6.5580    4.1330 O   0  0  0  0  0  0  0  0  0  0  0  0
   25.1990    7.9920    3.4790 O   0  0  0  0  0  0  0  0  0  0  0  0
   25.1960    4.3220    3.9450 C   0  0  0  0  0  0  0  0  0  0  0  0
   23.7430    3.8840    4.2080 C   0  0  0  0  0  0  0  0  0  0  0  0
   23.3740    4.2260    5.4400 F   0  0  0  0  0  0  0  0  0  0  0  0
   22.8780    4.4110    3.3450 F   0  0  0  0  0  0  0  0  0  0  0  0
   23.5880    2.5680    4.1010 F   0  0  0  0  0  0  0  0  0  0  0  0
  2  1  2  0
  7  1  1  0
  3  2  1  0
  4  3  1  0
  5  3  2  0
  6  5  1  0
  7  6  2  0
  8  7  1  0
  9  8  1  0
 10  9  1  0
 11 10  1  0
 12 10  1  0
 13 10  1  0
 14 13  2  0
 15 13  1  0
 16 15  1  0
 17 16  2  0
 18 16  1  0
 24 17  1  0
 19 18  2  0
 20 19  1  0
 21 20  1  0
 24 20  2  0
 22 21  2  0
 23 21  1  0
 25 24  1  0
 26 25  1  0
 27 25  1  0
 28 25  1  0
M  CHG  2  21   1  23  -1
A    1
C17
A    2
C18
A    3
C19
A    4
F19
A    5
C20
A    6
C21
A    7
C16
A    8
O14
A    9
C13
A   10
C11
A   11
O11
A   12
C12
A   13
C10
A   14
O10
A   15
N9
A   16
C6
A   17
C5
A   18
C1
A   19
C2
A   20
C3
A   21
N8
A   22
O2
A   23
O1
A   24
C4
A   25
C7
A   26
F2
A   27
F3
A   28
F1
M  END
>  <Id>  (21) 
2AX7_FHM_A_1

>  <ChainId>  (21) 
A

>  <AsymId>  (21) 
B

>  <SeqNum>  (21) 
1

>  <Name>  (21) 
S-3-(4-FLUOROPHENOXY)-2-HYDROXY-2-METHYL-N-[4-NITRO-3-(TRIFLUOROMETHYL)PHENYL]PROPANAMIDE

>  <SystematicName>  (21) 
(2S)-3-(4-fluorophenoxy)-2-hydroxy-2-methyl-N-[4-nitro-3-(trifluoromethyl)phenyl]propanamide

>  <Synonyms>  (21) 


>  <Type>  (21) 
NON-POLYMER

>  <Formula>  (21) 
C17 H14 F4 N2 O5

>  <ObservedFormula>  (21) 
C17 F4 N2 O5

>  <MolecularWeight>  (21) 
402.297

>  <ModifiedDate>  (21) 
2011-06-04

>  <Parent>  (21) 


>  <OneLetterCode>  (21) 


>  <SubcomponentList>  (21) 


>  <AmbiguousFlag>  (21) 
N

>  <InsertionCode>  (21) 


>  <InstanceId>  (21) 
2AX7_FHM_A_1

>  <ChemCompId>  (21) 
FHM

>  <PdbId>  (21) 
2AX7

>  <ResidueNumber>  (21) 
1

>  <InChI>  (21) 
InChI=1S/C17H14F4N2O5/c1-16(25,9-28-12-5-2-10(18)3-6-12)15(24)22-11-4-7-14(23(26)27)13(8-11)17(19,20)21/h2-8,25H,9H2,1H3,(H,22,24)/t16-/m0/s1

>  <InChIKey>  (21) 
KJMFOTCDISOHDX-INIZCTEOSA-N

>  <SMILES>  (21) 
C[C@](COc1ccc(cc1)F)(C(=O)Nc2ccc(c(c2)C(F)(F)F)[N+](=O)[O-])O

>  <MissingHeavyAtoms>  (21) 
0

>  <Model>  (21) 
1

>  <AltIds>  (21) 


>  <pKI>  (21) 
8.21

>  <ChemblID>  (21) 
CHEMBL124718

>  <standardized_canonical_smiles>  (21) 
C[C@](O)(COc1ccc(F)cc1)C(=O)Nc1ccc([N+](=O)[O-])c(C(F)(F)F)c1

$$$$
2AX8_FHM_A_1
     RDKit          3D

 28 29  0  0  0  0  0  0  0  0999 V2000
   30.2820    0.4620    8.5080 C   0  0  0  0  0  0  0  0  0  0  0  0
   29.9530    0.3720    9.8580 C   0  0  0  0  0  0  0  0  0  0  0  0
   29.0800    1.2930   10.4280 C   0  0  0  0  0  0  0  0  0  0  0  0
   28.7570    1.2050   11.7340 F   0  0  0  0  0  0  0  0  0  0  0  0
   28.5350    2.3070    9.6450 C   0  0  0  0  0  0  0  0  0  0  0  0
   28.8660    2.3950    8.2960 C   0  0  0  0  0  0  0  0  0  0  0  0
   29.7410    1.4760    7.7210 C   0  0  0  0  0  0  0  0  0  0  0  0
   30.0350    1.6050    6.3980 O   0  0  0  0  0  0  0  0  0  0  0  0
   30.1270    0.3660    5.6750 C   0  0  0  0  0  0  0  0  0  0  0  0
   29.8770    0.6620    4.2040 C   0  0  0  0  0  0  0  0  0  0  0  0
   30.9270    1.4950    3.7070 O   0  0  0  0  0  0  0  0  0  0  0  0
   29.8170   -0.6530    3.4240 C   0  0  0  0  0  0  0  0  0  0  0  0
   28.5500    1.4170    4.0910 C   0  0  0  0  0  0  0  0  0  0  0  0
   27.4770    0.8530    4.3000 O   0  0  0  0  0  0  0  0  0  0  0  0
   28.6860    2.7010    3.7650 N   0  0  0  0  0  0  0  0  0  0  0  0
   27.6920    3.5780    3.6330 C   0  0  0  0  0  0  0  0  0  0  0  0
   26.3730    3.2830    3.9690 C   0  0  0  0  0  0  0  0  0  0  0  0
   28.0150    4.8830    3.2760 C   0  0  0  0  0  0  0  0  0  0  0  0
   27.0260    5.8600    3.2870 C   0  0  0  0  0  0  0  0  0  0  0  0
   25.7160    5.5620    3.6530 C   0  0  0  0  0  0  0  0  0  0  0  0
   24.8670    6.5900    3.6680 N   0  0  0  0  0  0  0  0  0  0  0  0
   23.5830    6.5130    4.2690 O   0  0  0  0  0  0  0  0  0  0  0  0
   25.3120    7.8720    3.2510 O   0  0  0  0  0  0  0  0  0  0  0  0
   25.3650    4.2490    3.9810 C   0  0  0  0  0  0  0  0  0  0  0  0
   23.9180    3.8040    4.2600 C   0  0  0  0  0  0  0  0  0  0  0  0
   23.5710    4.1180    5.5050 F   0  0  0  0  0  0  0  0  0  0  0  0
   23.0450    4.3520    3.4190 F   0  0  0  0  0  0  0  0  0  0  0  0
   23.7560    2.4900    4.1230 F   0  0  0  0  0  0  0  0  0  0  0  0
  2  1  2  0
  7  1  1  0
  3  2  1  0
  4  3  1  0
  5  3  2  0
  6  5  1  0
  7  6  2  0
  8  7  1  0
  9  8  1  0
 10  9  1  0
 11 10  1  0
 12 10  1  0
 13 10  1  0
 14 13  2  0
 15 13  1  0
 16 15  1  0
 17 16  2  0
 18 16  1  0
 24 17  1  0
 19 18  2  0
 20 19  1  0
 21 20  1  0
 24 20  2  0
 22 21  2  0
 23 21  1  0
 25 24  1  0
 26 25  1  0
 27 25  1  0
 28 25  1  0
M  CHG  2  21   1  23  -1
A    1
C17
A    2
C18
A    3
C19
A    4
F19
A    5
C20
A    6
C21
A    7
C16
A    8
O14
A    9
C13
A   10
C11
A   11
O11
A   12
C12
A   13
C10
A   14
O10
A   15
N9
A   16
C6
A   17
C5
A   18
C1
A   19
C2
A   20
C3
A   21
N8
A   22
O2
A   23
O1
A   24
C4
A   25
C7
A   26
F2
A   27
F3
A   28
F1
M  END
>  <Id>  (22) 
2AX8_FHM_A_1

>  <ChainId>  (22) 
A

>  <AsymId>  (22) 
B

>  <SeqNum>  (22) 
1

>  <Name>  (22) 
S-3-(4-FLUOROPHENOXY)-2-HYDROXY-2-METHYL-N-[4-NITRO-3-(TRIFLUOROMETHYL)PHENYL]PROPANAMIDE

>  <SystematicName>  (22) 
(2S)-3-(4-fluorophenoxy)-2-hydroxy-2-methyl-N-[4-nitro-3-(trifluoromethyl)phenyl]propanamide

>  <Synonyms>  (22) 


>  <Type>  (22) 
NON-POLYMER

>  <Formula>  (22) 
C17 H14 F4 N2 O5

>  <ObservedFormula>  (22) 
C17 F4 N2 O5

>  <MolecularWeight>  (22) 
402.297

>  <ModifiedDate>  (22) 
2011-06-04

>  <Parent>  (22) 


>  <OneLetterCode>  (22) 


>  <SubcomponentList>  (22) 


>  <AmbiguousFlag>  (22) 
N

>  <InsertionCode>  (22) 


>  <InstanceId>  (22) 
2AX8_FHM_A_1

>  <ChemCompId>  (22) 
FHM

>  <PdbId>  (22) 
2AX8

>  <ResidueNumber>  (22) 
1

>  <InChI>  (22) 
InChI=1S/C17H14F4N2O5/c1-16(25,9-28-12-5-2-10(18)3-6-12)15(24)22-11-4-7-14(23(26)27)13(8-11)17(19,20)21/h2-8,25H,9H2,1H3,(H,22,24)/t16-/m0/s1

>  <InChIKey>  (22) 
KJMFOTCDISOHDX-INIZCTEOSA-N

>  <SMILES>  (22) 
C[C@](COc1ccc(cc1)F)(C(=O)Nc2ccc(c(c2)C(F)(F)F)[N+](=O)[O-])O

>  <MissingHeavyAtoms>  (22) 
0

>  <Model>  (22) 
1

>  <AltIds>  (22) 


>  <pKI>  (22) 
8.21

>  <ChemblID>  (22) 
CHEMBL124718

>  <standardized_canonical_smiles>  (22) 
C[C@](O)(COc1ccc(F)cc1)C(=O)Nc1ccc([N+](=O)[O-])c(C(F)(F)F)c1

$$$$
3B5R_B5R_A_1
     RDKit          3D

 28 29  0  0  0  0  0  0  0  0999 V2000
   29.5630   -0.6500    8.0000 C   0  0  0  0  0  0  0  0  0  0  0  0
   29.5860   -0.8310    9.3790 C   0  0  0  0  0  0  0  0  0  0  0  0
   29.7060   -2.0930    9.8420 F   0  0  0  0  0  0  0  0  0  0  0  0
   29.4810    0.2740   10.2230 C   0  0  0  0  0  0  0  0  0  0  0  0
   29.4480    0.1230   11.9470 Cl  0  0  0  0  0  0  0  0  0  0  0  0
   29.3670    1.5500    9.6770 C   0  0  0  0  0  0  0  0  0  0  0  0
   29.3430    1.7330    8.2980 C   0  0  0  0  0  0  0  0  0  0  0  0
   29.4300    0.6260    7.4590 C   0  0  0  0  0  0  0  0  0  0  0  0
   29.1890    0.7630    6.1290 O   0  0  0  0  0  0  0  0  0  0  0  0
   30.3680    0.9100    5.3260 C   0  0  0  0  0  0  0  0  0  0  0  0
   29.8990    0.8780    3.8800 C   0  0  0  0  0  0  0  0  0  0  0  0
   30.8690    1.5460    3.0700 O   0  0  0  0  0  0  0  0  0  0  0  0
   29.7260   -0.5710    3.4190 C   0  0  0  0  0  0  0  0  0  0  0  0
   28.5650    1.6230    3.7980 C   0  0  0  0  0  0  0  0  0  0  0  0
   27.5010    1.0160    3.9160 O   0  0  0  0  0  0  0  0  0  0  0  0
   28.6810    2.9400    3.6410 N   0  0  0  0  0  0  0  0  0  0  0  0
   27.6780    3.8130    3.5630 C   0  0  0  0  0  0  0  0  0  0  0  0
   26.3380    3.4700    3.7330 C   0  0  0  0  0  0  0  0  0  0  0  0
   28.0190    5.1500    3.3910 C   0  0  0  0  0  0  0  0  0  0  0  0
   27.0230    6.1190    3.3990 C   0  0  0  0  0  0  0  0  0  0  0  0
   25.6890    5.7640    3.5760 C   0  0  0  0  0  0  0  0  0  0  0  0
   24.7430    6.8380    3.5720 C   0  0  0  0  0  0  0  0  0  0  0  0
   24.0010    7.7010    3.5600 N   0  0  0  0  0  0  0  0  0  0  0  0
   25.3200    4.4270    3.7470 C   0  0  0  0  0  0  0  0  0  0  0  0
   23.8660    3.9940    4.0180 C   0  0  0  0  0  0  0  0  0  0  0  0
   22.9710    4.6510    3.2850 F   0  0  0  0  0  0  0  0  0  0  0  0
   23.6550    2.7090    3.7480 F   0  0  0  0  0  0  0  0  0  0  0  0
   23.5610    4.1870    5.2970 F   0  0  0  0  0  0  0  0  0  0  0  0
  2  1  2  0
  8  1  1  0
  3  2  1  0
  4  2  1  0
  5  4  1  0
  6  4  2  0
  7  6  1  0
  8  7  2  0
  9  8  1  0
 10  9  1  0
 11 10  1  0
 12 11  1  0
 13 11  1  0
 14 11  1  0
 15 14  2  0
 16 14  1  0
 17 16  1  0
 18 17  2  0
 19 17  1  0
 24 18  1  0
 20 19  2  0
 21 20  1  0
 22 21  1  0
 24 21  2  0
 23 22  3  0
 25 24  1  0
 26 25  1  0
 27 25  1  0
 28 25  1  0
A    1
C21
A    2
C20
A    3
F20
A    4
C19
A    5
CL19
A    6
C18
A    7
C17
A    8
C16
A    9
O14
A   10
C13
A   11
C11
A   12
O11
A   13
C12
A   14
C10
A   15
O10
A   16
N9
A   17
C6
A   18
C5
A   19
C1
A   20
C2
A   21
C3
A   22
C8
A   23
N8
A   24
C4
A   25
C7
A   26
F2
A   27
F1
A   28
F3
M  END
>  <Id>  (23) 
3B5R_B5R_A_1

>  <ChainId>  (23) 
A

>  <AsymId>  (23) 
B

>  <SeqNum>  (23) 
1

>  <Name>  (23) 
(2S)-3-(4-chloro-3-fluorophenoxy)-N-[4-cyano-3-(trifluoromethyl)phenyl]-2-hydroxy-2-methylpropanamide

>  <SystematicName>  (23) 
(2S)-3-(4-chloro-3-fluoro-phenoxy)-N-[4-cyano-3-(trifluoromethyl)phenyl]-2-hydroxy-2-methyl-propanamide

>  <Synonyms>  (23) 


>  <Type>  (23) 
NON-POLYMER

>  <Formula>  (23) 
C18 H13 Cl F4 N2 O3

>  <ObservedFormula>  (23) 
C18 F4 Cl N2 O3

>  <MolecularWeight>  (23) 
416.754

>  <ModifiedDate>  (23) 
2011-06-04

>  <Parent>  (23) 


>  <OneLetterCode>  (23) 


>  <SubcomponentList>  (23) 


>  <AmbiguousFlag>  (23) 
N

>  <InsertionCode>  (23) 


>  <InstanceId>  (23) 
3B5R_B5R_A_1

>  <ChemCompId>  (23) 
B5R

>  <PdbId>  (23) 
3B5R

>  <ResidueNumber>  (23) 
1

>  <InChI>  (23) 
InChI=1S/C18H13ClF4N2O3/c1-17(27,9-28-12-4-5-14(19)15(20)7-12)16(26)25-11-3-2-10(8-24)13(6-11)18(21,22)23/h2-7,27H,9H2,1H3,(H,25,26)/t17-/m0/s1

>  <InChIKey>  (23) 
SSFVOEAXHZGTRJ-KRWDZBQOSA-N

>  <SMILES>  (23) 
C[C@](COc1ccc(c(c1)F)Cl)(C(=O)Nc2ccc(c(c2)C(F)(F)F)C#N)O

>  <MissingHeavyAtoms>  (23) 
0

>  <Model>  (23) 
1

>  <AltIds>  (23) 


>  <pKI>  (23) 
8.77

>  <ChemblID>  (23) 
CHEMBL512283

>  <standardized_canonical_smiles>  (23) 
C[C@](O)(COc1ccc(Cl)c(F)c1)C(=O)Nc1ccc(C#N)c(C(F)(F)F)c1

$$$$
5CJ6_51Y_A_1001
     RDKit          3D

 18 19  0  0  0  0  0  0  0  0999 V2000
  -27.7140    3.4670   -4.4210 C   0  0  0  0  0  0  0  0  0  0  0  0
  -26.7160    2.5430   -4.6690 C   0  0  0  0  0  0  0  0  0  0  0  0
  -27.4510    4.8180   -4.4220 C   0  0  0  0  0  0  0  0  0  0  0  0
  -24.3480    2.0010   -5.1880 C   0  0  0  0  0  0  0  0  0  0  0  0
  -25.4370    2.9890   -4.9240 C   0  0  0  0  0  0  0  0  0  0  0  0
  -25.1750    4.3400   -4.9240 C   0  0  0  0  0  0  0  0  0  0  0  0
  -26.1720    5.2580   -4.6750 C   0  0  0  0  0  0  0  0  0  0  0  0
  -26.9190    1.1540   -4.6900 N   0  0  0  0  0  0  0  0  0  0  0  0
  -28.1510    0.6940   -4.0950 C   0  0  0  0  0  0  0  0  0  0  0  0
  -29.2800    0.5610   -5.0980 C   0  0  0  0  0  0  0  0  0  0  0  0
  -30.3150    1.4080   -4.6490 O   0  0  0  0  0  0  0  0  0  0  0  0
  -28.9270    0.9130   -6.5280 C   0  0  0  0  0  0  0  0  0  0  0  0
  -29.7910   -0.8520   -5.0440 C   0  0  0  0  0  0  0  0  0  0  0  0
  -29.1050   -1.5250   -3.8860 C   0  0  0  0  0  0  0  0  0  0  0  0
  -27.8950   -0.6920   -3.5470 C   0  0  0  0  0  0  0  0  0  0  0  0
  -23.5750    4.8970   -5.2360 Cl  0  0  0  0  0  0  0  0  0  0  0  0
  -25.8740    6.6540   -4.6850 C   0  0  0  0  0  0  0  0  0  0  0  0
  -25.6650    7.8000   -4.7310 N   0  0  0  0  0  0  0  0  0  0  0  0
  2  1  2  0
  3  1  1  0
  5  2  1  0
  8  2  1  0
  7  3  2  0
  5  4  1  0
  6  5  2  0
  7  6  1  0
 16  6  1  0
 17  7  1  0
  9  8  1  0
 10  9  1  0
 15  9  1  0
 11 10  1  0
 12 10  1  0
 13 10  1  0
 14 13  1  0
 15 14  1  0
 18 17  3  0
A    1
C7
A    2
C6
A    3
C1
A    4
C5
A    5
C4
A    6
C3
A    7
C2
A    8
N8
A    9
C9
A   10
C10
A   11
O11
A   12
C12
A   13
C13
A   14
C14
A   15
C15
A   16
CL1
A   17
C17
A   18
N18
M  END
>  <Id>  (24) 
5CJ6_51Y_A_1001

>  <ChainId>  (24) 
A

>  <AsymId>  (24) 
C

>  <SeqNum>  (24) 
1001

>  <Name>  (24) 
2-chloro-4-{[(1R,2R)-2-hydroxy-2-methylcyclopentyl]amino}-3-methylbenzonitrile

>  <SystematicName>  (24) 
2-chloranyl-3-methyl-4-[[(1R,2R)-2-methyl-2-oxidanyl-cyclopentyl]amino]benzenecarbonitrile

>  <Synonyms>  (24) 


>  <Type>  (24) 
NON-POLYMER

>  <Formula>  (24) 
C14 H17 Cl N2 O

>  <ObservedFormula>  (24) 
C14 Cl N2 O

>  <MolecularWeight>  (24) 
264.751

>  <ModifiedDate>  (24) 
2015-12-31

>  <Parent>  (24) 


>  <OneLetterCode>  (24) 


>  <SubcomponentList>  (24) 


>  <AmbiguousFlag>  (24) 
N

>  <InsertionCode>  (24) 


>  <InstanceId>  (24) 
5CJ6_51Y_A_1001

>  <ChemCompId>  (24) 
51Y

>  <PdbId>  (24) 
5CJ6

>  <ResidueNumber>  (24) 
1001

>  <InChI>  (24) 
InChI=1S/C14H17ClN2O/c1-9-11(6-5-10(8-16)13(9)15)17-12-4-3-7-14(12,2)18/h5-6,12,17-18H,3-4,7H2,1-2H3/t12-,14-/m1/s1

>  <InChIKey>  (24) 
CXFSVKGROITHRY-TZMCWYRMSA-N

>  <SMILES>  (24) 
Cc1c(ccc(c1Cl)C#N)N[C@@H]2CCC[C@@]2(C)O

>  <MissingHeavyAtoms>  (24) 
0

>  <Model>  (24) 
1

>  <AltIds>  (24) 


>  <pKI>  (24) 
8.69

>  <ChemblID>  (24) 
CHEMBL3764185

>  <standardized_canonical_smiles>  (24) 
Cc1c(N[C@@H]2CCC[C@@]2(C)O)ccc(C#N)c1Cl

$$$$
3B67_B67_A_1
     RDKit          3D

 32 33  0  0  0  0  0  0  0  0999 V2000
   23.7470    2.4230    4.4340 F   0  0  0  0  0  0  0  0  0  0  0  0
   23.8270    3.7490    4.5070 C   0  0  0  0  0  0  0  0  0  0  0  0
   23.5120    4.0860    5.7540 F   0  0  0  0  0  0  0  0  0  0  0  0
   22.9060    4.2170    3.6700 F   0  0  0  0  0  0  0  0  0  0  0  0
   25.2420    4.2460    4.1560 C   0  0  0  0  0  0  0  0  0  0  0  0
   26.2920    3.3280    4.1510 C   0  0  0  0  0  0  0  0  0  0  0  0
   25.5280    5.5560    3.7640 C   0  0  0  0  0  0  0  0  0  0  0  0
   24.6900    6.5790    3.9270 N   0  0  0  0  0  0  0  0  0  0  0  0
   25.0450    7.8390    3.3770 O   0  0  0  0  0  0  0  0  0  0  0  0
   23.4250    6.4580    4.5610 O   0  0  0  0  0  0  0  0  0  0  0  0
   26.8160    5.8900    3.3570 C   0  0  0  0  0  0  0  0  0  0  0  0
   27.8490    4.9600    3.3530 C   0  0  0  0  0  0  0  0  0  0  0  0
   27.5890    3.6570    3.7650 C   0  0  0  0  0  0  0  0  0  0  0  0
   28.6020    2.7960    3.8380 N   0  0  0  0  0  0  0  0  0  0  0  0
   28.5010    1.5400    4.2710 C   0  0  0  0  0  0  0  0  0  0  0  0
   27.4580    1.0070    4.6460 O   0  0  0  0  0  0  0  0  0  0  0  0
   29.8210    0.7650    4.2880 C   0  0  0  0  0  0  0  0  0  0  0  0
   30.8560    1.5720    3.7200 O   0  0  0  0  0  0  0  0  0  0  0  0
   29.6730   -0.5380    3.5000 C   0  0  0  0  0  0  0  0  0  0  0  0
   30.1560    0.4360    5.7350 C   0  0  0  0  0  0  0  0  0  0  0  0
   30.4670    1.6020    6.5180 O   0  0  0  0  0  0  0  0  0  0  0  0
   29.7840    1.6280    7.6980 C   0  0  0  0  0  0  0  0  0  0  0  0
   28.7310    2.5220    7.8790 C   0  0  0  0  0  0  0  0  0  0  0  0
   28.4000    3.3310    6.8500 F   0  0  0  0  0  0  0  0  0  0  0  0
   28.0500    2.5710    9.0970 C   0  0  0  0  0  0  0  0  0  0  0  0
   27.0690    3.4840    9.2820 F   0  0  0  0  0  0  0  0  0  0  0  0
   28.4160    1.7050   10.1290 C   0  0  0  0  0  0  0  0  0  0  0  0
   27.7200    1.7030   11.2880 F   0  0  0  0  0  0  0  0  0  0  0  0
   29.4750    0.8080    9.9520 C   0  0  0  0  0  0  0  0  0  0  0  0
   29.8010   -0.0670   10.9280 F   0  0  0  0  0  0  0  0  0  0  0  0
   30.1630    0.7850    8.7380 C   0  0  0  0  0  0  0  0  0  0  0  0
   31.2390   -0.0080    8.5390 F   0  0  0  0  0  0  0  0  0  0  0  0
  2  1  1  0
  3  2  1  0
  4  2  1  0
  5  2  1  0
  6  5  2  0
  7  5  1  0
 13  6  1  0
  8  7  1  0
 11  7  2  0
  9  8  2  0
 10  8  1  0
 12 11  1  0
 13 12  2  0
 14 13  1  0
 15 14  1  0
 16 15  2  0
 17 15  1  0
 18 17  1  0
 19 17  1  0
 20 17  1  0
 21 20  1  0
 22 21  1  0
 23 22  2  0
 31 22  1  0
 24 23  1  0
 25 23  1  0
 26 25  1  0
 27 25  2  0
 28 27  1  0
 29 27  1  0
 30 29  1  0
 31 29  2  0
 32 31  1  0
M  CHG  2   8   1  10  -1
A    1
F1
A    2
C7
A    3
F2
A    4
F3
A    5
C4
A    6
C5
A    7
C3
A    8
N8
A    9
O2
A   10
O1
A   11
C2
A   12
C1
A   13
C6
A   14
N9
A   15
C10
A   16
O10
A   17
C11
A   18
O11
A   19
C12
A   20
C13
A   21
O14
A   22
C16
A   23
C17
A   24
F17
A   25
C18
A   26
F18
A   27
C19
A   28
F19
A   29
C20
A   30
F20
A   31
C21
A   32
F21
M  END
>  <Id>  (25) 
3B67_B67_A_1

>  <ChainId>  (25) 
A

>  <AsymId>  (25) 
B

>  <SeqNum>  (25) 
1

>  <Name>  (25) 
(2S)-2-hydroxy-2-methyl-N-[4-nitro-3-(trifluoromethyl)phenyl]-3-(pentafluorophenoxy)propanamide

>  <SystematicName>  (25) 
(2S)-2-hydroxy-2-methyl-N-[4-nitro-3-(trifluoromethyl)phenyl]-3-(2,3,4,5,6-pentafluorophenoxy)propanamide

>  <Synonyms>  (25) 


>  <Type>  (25) 
NON-POLYMER

>  <Formula>  (25) 
C17 H10 F8 N2 O5

>  <ObservedFormula>  (25) 
C17 F8 N2 O5

>  <MolecularWeight>  (25) 
474.259

>  <ModifiedDate>  (25) 
2011-06-04

>  <Parent>  (25) 


>  <OneLetterCode>  (25) 


>  <SubcomponentList>  (25) 


>  <AmbiguousFlag>  (25) 
N

>  <InsertionCode>  (25) 


>  <InstanceId>  (25) 
3B67_B67_A_1

>  <ChemCompId>  (25) 
B67

>  <PdbId>  (25) 
3B67

>  <ResidueNumber>  (25) 
1

>  <InChI>  (25) 
InChI=1S/C17H10F8N2O5/c1-16(29,5-32-14-12(21)10(19)9(18)11(20)13(14)22)15(28)26-6-2-3-8(27(30)31)7(4-6)17(23,24)25/h2-4,29H,5H2,1H3,(H,26,28)/t16-/m0/s1

>  <InChIKey>  (25) 
MMNRWNREMUMYQG-INIZCTEOSA-N

>  <SMILES>  (25) 
C[C@](COc1c(c(c(c(c1F)F)F)F)F)(C(=O)Nc2ccc(c(c2)C(F)(F)F)[N+](=O)[O-])O

>  <MissingHeavyAtoms>  (25) 
0

>  <Model>  (25) 
1

>  <AltIds>  (25) 


>  <pKI>  (25) 
9.27

>  <ChemblID>  (25) 
-

>  <standardized_canonical_smiles>  (25) 
C[C@](O)(COc1ccc(C#N)cc1)C(=O)Nc1ccc(C#N)c(I)c1

$$$$
3B65_3B6_A_1
     RDKit          3D

 25 26  0  0  0  0  0  0  0  0999 V2000
   26.2140    3.3820    3.9210 C   0  0  0  0  0  0  0  0  0  0  0  0
   25.2350    4.3730    3.8580 C   0  0  0  0  0  0  0  0  0  0  0  0
   23.2180    3.8780    4.1630 I   0  0  0  0  0  0  0  0  0  0  0  0
   25.6120    5.6870    3.6050 C   0  0  0  0  0  0  0  0  0  0  0  0
   24.6460    6.7400    3.5080 C   0  0  0  0  0  0  0  0  0  0  0  0
   23.8880    7.5820    3.4250 N   0  0  0  0  0  0  0  0  0  0  0  0
   26.9540    6.0080    3.4220 C   0  0  0  0  0  0  0  0  0  0  0  0
   27.9250    5.0150    3.4860 C   0  0  0  0  0  0  0  0  0  0  0  0
   27.5590    3.6950    3.7360 C   0  0  0  0  0  0  0  0  0  0  0  0
   28.5410    2.7940    3.7680 N   0  0  0  0  0  0  0  0  0  0  0  0
   28.4020    1.4870    3.9760 C   0  0  0  0  0  0  0  0  0  0  0  0
   27.3320    0.9180    4.1860 O   0  0  0  0  0  0  0  0  0  0  0  0
   29.7190    0.7060    3.9600 C   0  0  0  0  0  0  0  0  0  0  0  0
   30.7670    1.5730    3.5180 O   0  0  0  0  0  0  0  0  0  0  0  0
   29.5970   -0.4990    3.0240 C   0  0  0  0  0  0  0  0  0  0  0  0
   30.0200    0.2180    5.3690 C   0  0  0  0  0  0  0  0  0  0  0  0
   30.1290    1.3470    6.2520 O   0  0  0  0  0  0  0  0  0  0  0  0
   29.8710    1.0640    7.5600 C   0  0  0  0  0  0  0  0  0  0  0  0
   30.2320   -0.1510    8.1380 C   0  0  0  0  0  0  0  0  0  0  0  0
   29.9980   -0.3860    9.4900 C   0  0  0  0  0  0  0  0  0  0  0  0
   29.4010    0.5970   10.2720 C   0  0  0  0  0  0  0  0  0  0  0  0
   29.2150    0.3850   11.6760 C   0  0  0  0  0  0  0  0  0  0  0  0
   29.0720    0.2250   12.7930 N   0  0  0  0  0  0  0  0  0  0  0  0
   29.0320    1.8110    9.6980 C   0  0  0  0  0  0  0  0  0  0  0  0
   29.2670    2.0430    8.3460 C   0  0  0  0  0  0  0  0  0  0  0  0
  2  1  2  0
  9  1  1  0
  3  2  1  0
  4  2  1  0
  5  4  1  0
  7  4  2  0
  6  5  3  0
  8  7  1  0
  9  8  2  0
 10  9  1  0
 11 10  1  0
 12 11  2  0
 13 11  1  0
 14 13  1  0
 15 13  1  0
 16 13  1  0
 17 16  1  0
 18 17  1  0
 19 18  2  0
 25 18  1  0
 20 19  1  0
 21 20  2  0
 22 21  1  0
 24 21  1  0
 23 22  3  0
 25 24  2  0
A    1
C5
A    2
C4
A    3
I7
A    4
C3
A    5
C8
A    6
N8
A    7
C2
A    8
C1
A    9
C6
A   10
N9
A   11
C10
A   12
O10
A   13
C11
A   14
O11
A   15
C12
A   16
C13
A   17
O14
A   18
C16
A   19
C17
A   20
C18
A   21
C19
A   22
C22
A   23
N22
A   24
C20
A   25
C21
M  END
>  <Id>  (26) 
3B65_3B6_A_1

>  <ChainId>  (26) 
A

>  <AsymId>  (26) 
B

>  <SeqNum>  (26) 
1

>  <Name>  (26) 
(2S)-N-(4-cyano-3-iodophenyl)-3-(4-cyanophenoxy)-2-hydroxy-2-methylpropanamide

>  <SystematicName>  (26) 
(2S)-N-(4-cyano-3-iodo-phenyl)-3-(4-cyanophenoxy)-2-hydroxy-2-methyl-propanamide

>  <Synonyms>  (26) 


>  <Type>  (26) 
NON-POLYMER

>  <Formula>  (26) 
C18 H14 I N3 O3

>  <ObservedFormula>  (26) 
C18 I N3 O3

>  <MolecularWeight>  (26) 
447.227

>  <ModifiedDate>  (26) 
2011-06-04

>  <Parent>  (26) 


>  <OneLetterCode>  (26) 


>  <SubcomponentList>  (26) 


>  <AmbiguousFlag>  (26) 
N

>  <InsertionCode>  (26) 


>  <InstanceId>  (26) 
3B65_3B6_A_1

>  <ChemCompId>  (26) 
3B6

>  <PdbId>  (26) 
3B65

>  <ResidueNumber>  (26) 
1

>  <InChI>  (26) 
InChI=1S/C18H14IN3O3/c1-18(24,11-25-15-6-2-12(9-20)3-7-15)17(23)22-14-5-4-13(10-21)16(19)8-14/h2-8,24H,11H2,1H3,(H,22,23)/t18-/m0/s1

>  <InChIKey>  (26) 
RXSZCFAPSDTELY-SFHVURJKSA-N

>  <SMILES>  (26) 
C[C@](COc1ccc(cc1)C#N)(C(=O)Nc2ccc(c(c2)I)C#N)O

>  <MissingHeavyAtoms>  (26) 
0

>  <Model>  (26) 
1

>  <AltIds>  (26) 


>  <pKI>  (26) 
9.27

>  <ChemblID>  (26) 
-

>  <standardized_canonical_smiles>  (26) 
C[C@](O)(COc1ccc(C#N)cc1)C(=O)Nc1ccc(C#N)c(I)c1

$$$$
3B68_B68_A_1
     RDKit          3D

 31 32  0  0  0  0  0  0  0  0999 V2000
   29.5300   -0.1530   14.0740 C   0  0  0  0  0  0  0  0  0  0  0  0
   30.0740   -0.0310   12.6490 C   0  0  0  0  0  0  0  0  0  0  0  0
   31.1890   -0.4680   12.3650 O   0  0  0  0  0  0  0  0  0  0  0  0
   29.2660    0.5970   11.7970 N   0  0  0  0  0  0  0  0  0  0  0  0
   29.5320    0.8060   10.5070 C   0  0  0  0  0  0  0  0  0  0  0  0
   30.7030    0.3490    9.9050 C   0  0  0  0  0  0  0  0  0  0  0  0
   30.9330    0.5700    8.5500 C   0  0  0  0  0  0  0  0  0  0  0  0
   28.5950    1.4870    9.7360 C   0  0  0  0  0  0  0  0  0  0  0  0
   28.8200    1.7080    8.3800 C   0  0  0  0  0  0  0  0  0  0  0  0
   29.9910    1.2480    7.7820 C   0  0  0  0  0  0  0  0  0  0  0  0
   30.2290    1.5120    6.4680 O   0  0  0  0  0  0  0  0  0  0  0  0
   29.9660    0.3720    5.6340 C   0  0  0  0  0  0  0  0  0  0  0  0
   29.7360    0.8170    4.1980 C   0  0  0  0  0  0  0  0  0  0  0  0
   30.8080    1.6700    3.7880 O   0  0  0  0  0  0  0  0  0  0  0  0
   29.6590   -0.4110    3.2890 C   0  0  0  0  0  0  0  0  0  0  0  0
   28.4240    1.6000    4.1380 C   0  0  0  0  0  0  0  0  0  0  0  0
   27.3540    1.0420    4.3760 O   0  0  0  0  0  0  0  0  0  0  0  0
   28.5640    2.8920    3.8460 N   0  0  0  0  0  0  0  0  0  0  0  0
   27.5700    3.7740    3.7430 C   0  0  0  0  0  0  0  0  0  0  0  0
   26.2350    3.4430    3.9690 C   0  0  0  0  0  0  0  0  0  0  0  0
   27.8860    5.0910    3.4350 C   0  0  0  0  0  0  0  0  0  0  0  0
   26.8720    6.0420    3.3750 C   0  0  0  0  0  0  0  0  0  0  0  0
   25.5430    5.7060    3.6190 C   0  0  0  0  0  0  0  0  0  0  0  0
   24.6680    6.7110    3.5770 N   0  0  0  0  0  0  0  0  0  0  0  0
   23.3010    6.5660    3.9340 O   0  0  0  0  0  0  0  0  0  0  0  0
   25.1230    8.0190    3.2620 O   0  0  0  0  0  0  0  0  0  0  0  0
   25.2030    4.3800    3.9100 C   0  0  0  0  0  0  0  0  0  0  0  0
   23.7570    3.8990    4.1370 C   0  0  0  0  0  0  0  0  0  0  0  0
   23.3000    4.3270    5.3100 F   0  0  0  0  0  0  0  0  0  0  0  0
   22.9170    4.3100    3.1910 F   0  0  0  0  0  0  0  0  0  0  0  0
   23.6710    2.5720    4.1530 F   0  0  0  0  0  0  0  0  0  0  0  0
  2  1  1  0
  3  2  2  0
  4  2  1  0
  5  4  1  0
  6  5  2  0
  8  5  1  0
  7  6  1  0
 10  7  2  0
  9  8  2  0
 10  9  1  0
 11 10  1  0
 12 11  1  0
 13 12  1  0
 14 13  1  0
 15 13  1  0
 16 13  1  0
 17 16  2  0
 18 16  1  0
 19 18  1  0
 20 19  2  0
 21 19  1  0
 27 20  1  0
 22 21  2  0
 23 22  1  0
 24 23  1  0
 27 23  2  0
 25 24  1  0
 26 24  2  0
 28 27  1  0
 29 28  1  0
 30 28  1  0
 31 28  1  0
M  CHG  2  24   1  25  -1
A    1
C24
A    2
C23
A    3
O23
A    4
N22
A    5
C19
A    6
C18
A    7
C17
A    8
C20
A    9
C21
A   10
C16
A   11
O14
A   12
C13
A   13
C11
A   14
O11
A   15
C12
A   16
C10
A   17
O10
A   18
N9
A   19
C6
A   20
C5
A   21
C1
A   22
C2
A   23
C3
A   24
N8
A   25
O1
A   26
O2
A   27
C4
A   28
C7
A   29
F2
A   30
F1
A   31
F3
M  END
>  <Id>  (27) 
3B68_B68_A_1

>  <ChainId>  (27) 
A

>  <AsymId>  (27) 
B

>  <SeqNum>  (27) 
1

>  <Name>  (27) 
(2S)-3-[4-(acetylamino)phenoxy]-2-hydroxy-2-methyl-N-[4-nitro-3-(trifluoromethyl)phenyl]propanamide

>  <SystematicName>  (27) 
(2S)-3-(4-acetamidophenoxy)-2-hydroxy-2-methyl-N-[4-nitro-3-(trifluoromethyl)phenyl]propanamide

>  <Synonyms>  (27) 


>  <Type>  (27) 
NON-POLYMER

>  <Formula>  (27) 
C19 H18 F3 N3 O6

>  <ObservedFormula>  (27) 
C19 F3 N3 O6

>  <MolecularWeight>  (27) 
441.358

>  <ModifiedDate>  (27) 
2011-06-04

>  <Parent>  (27) 


>  <OneLetterCode>  (27) 


>  <SubcomponentList>  (27) 


>  <AmbiguousFlag>  (27) 
N

>  <InsertionCode>  (27) 


>  <InstanceId>  (27) 
3B68_B68_A_1

>  <ChemCompId>  (27) 
B68

>  <PdbId>  (27) 
3B68

>  <ResidueNumber>  (27) 
1

>  <InChI>  (27) 
InChI=1S/C19H18F3N3O6/c1-11(26)23-12-3-6-14(7-4-12)31-10-18(2,28)17(27)24-13-5-8-16(25(29)30)15(9-13)19(20,21)22/h3-9,28H,10H2,1-2H3,(H,23,26)(H,24,27)/t18-/m0/s1

>  <InChIKey>  (27) 
YVXVTLGIDOACBJ-SFHVURJKSA-N

>  <SMILES>  (27) 
CC(=O)Nc1ccc(cc1)OC[C@@](C)(C(=O)Nc2ccc(c(c2)C(F)(F)F)[N+](=O)[O-])O

>  <MissingHeavyAtoms>  (27) 
0

>  <Model>  (27) 
1

>  <AltIds>  (27) 


>  <pKI>  (27) 
9.27

>  <ChemblID>  (27) 
-

>  <standardized_canonical_smiles>  (27) 
C[C@](O)(COc1ccc(C#N)cc1)C(=O)Nc1ccc(C#N)c(I)c1

$$$$
3B66_B66_A_1
     RDKit          3D

 29 30  0  0  0  0  0  0  0  0999 V2000
   28.9970    2.0250    8.0780 C   0  0  0  0  0  0  0  0  0  0  0  0
   28.7690    1.8740    9.4420 C   0  0  0  0  0  0  0  0  0  0  0  0
   29.4310    0.8790   10.1560 C   0  0  0  0  0  0  0  0  0  0  0  0
   29.1910    0.7140   11.4540 N   0  0  0  0  0  0  0  0  0  0  0  0
   29.9060   -0.2640   12.1960 O   0  0  0  0  0  0  0  0  0  0  0  0
   28.2450    1.5410   12.1200 O   0  0  0  0  0  0  0  0  0  0  0  0
   30.3220    0.0360    9.4960 C   0  0  0  0  0  0  0  0  0  0  0  0
   30.5480    0.1870    8.1310 C   0  0  0  0  0  0  0  0  0  0  0  0
   29.8860    1.1820    7.4160 C   0  0  0  0  0  0  0  0  0  0  0  0
   30.1260    1.3920    6.0930 O   0  0  0  0  0  0  0  0  0  0  0  0
   30.1390    0.1900    5.3060 C   0  0  0  0  0  0  0  0  0  0  0  0
   29.7610    0.5660    3.8830 C   0  0  0  0  0  0  0  0  0  0  0  0
   30.7790    1.4060    3.3330 O   0  0  0  0  0  0  0  0  0  0  0  0
   29.6010   -0.7010    3.0400 C   0  0  0  0  0  0  0  0  0  0  0  0
   28.4450    1.3450    3.9240 C   0  0  0  0  0  0  0  0  0  0  0  0
   27.3800    0.7850    4.1810 O   0  0  0  0  0  0  0  0  0  0  0  0
   28.5940    2.6500    3.7080 N   0  0  0  0  0  0  0  0  0  0  0  0
   27.6250    3.5650    3.6920 C   0  0  0  0  0  0  0  0  0  0  0  0
   26.2820    3.2660    3.9120 C   0  0  0  0  0  0  0  0  0  0  0  0
   27.9940    4.8830    3.4500 C   0  0  0  0  0  0  0  0  0  0  0  0
   27.0230    5.8770    3.4310 C   0  0  0  0  0  0  0  0  0  0  0  0
   25.6850    5.5650    3.6540 C   0  0  0  0  0  0  0  0  0  0  0  0
   24.7650    6.6620    3.6250 C   0  0  0  0  0  0  0  0  0  0  0  0
   24.0390    7.5380    3.5940 N   0  0  0  0  0  0  0  0  0  0  0  0
   25.2890    4.2470    3.8990 C   0  0  0  0  0  0  0  0  0  0  0  0
   23.8300    3.8490    4.1950 C   0  0  0  0  0  0  0  0  0  0  0  0
   23.5590    4.0570    5.4800 F   0  0  0  0  0  0  0  0  0  0  0  0
   22.9440    4.5270    3.4710 F   0  0  0  0  0  0  0  0  0  0  0  0
   23.5910    2.5650    3.9400 F   0  0  0  0  0  0  0  0  0  0  0  0
  2  1  2  0
  9  1  1  0
  3  2  1  0
  4  3  1  0
  7  3  2  0
  5  4  1  0
  6  4  2  0
  8  7  1  0
  9  8  2  0
 10  9  1  0
 11 10  1  0
 12 11  1  0
 13 12  1  0
 14 12  1  0
 15 12  1  0
 16 15  1  0
 17 15  1  0
 18 17  1  0
 19 18  2  0
 20 18  1  0
 25 19  1  0
 21 20  2  0
 22 21  1  0
 23 22  1  0
 25 22  2  0
 24 23  3  0
 26 25  1  0
 27 26  1  0
 28 26  1  0
 29 26  1  0
M  CHG  2   4   1   5  -1
A    1
C17
A    2
C18
A    3
C21
A    4
N19
A    5
O20
A    6
O19
A    7
C20
A    8
C19
A    9
C16
A   10
O14
A   11
C13
A   12
C11
A   13
O11
A   14
C12
A   15
C10
A   16
O10
A   17
N9
A   18
C6
A   19
C5
A   20
C1
A   21
C2
A   22
C3
A   23
C8
A   24
N8
A   25
C4
A   26
C7
A   27
F2
A   28
F3
A   29
F1
M  END
>  <Id>  (28) 
3B66_B66_A_1

>  <ChainId>  (28) 
A

>  <AsymId>  (28) 
B

>  <SeqNum>  (28) 
1

>  <Name>  (28) 
4-{[(1R,2S)-1,2-dihydroxy-2-methyl-3-(4-nitrophenoxy)propyl]amino}-2-(trifluoromethyl)benzonitrile

>  <SystematicName>  (28) 
4-[[(2S)-1,2-dihydroxy-2-methyl-3-(4-nitrophenoxy)propyl]amino]-2-(trifluoromethyl)benzonitrile

>  <Synonyms>  (28) 


>  <Type>  (28) 
NON-POLYMER

>  <Formula>  (28) 
C18 H16 F3 N3 O5

>  <ObservedFormula>  (28) 
C18 F3 N3 O5

>  <MolecularWeight>  (28) 
411.332

>  <ModifiedDate>  (28) 
2011-06-04

>  <Parent>  (28) 


>  <OneLetterCode>  (28) 


>  <SubcomponentList>  (28) 


>  <AmbiguousFlag>  (28) 
N

>  <InsertionCode>  (28) 


>  <InstanceId>  (28) 
3B66_B66_A_1

>  <ChemCompId>  (28) 
B66

>  <PdbId>  (28) 
3B66

>  <ResidueNumber>  (28) 
1

>  <InChI>  (28) 
InChI=1S/C18H16F3N3O5/c1-17(26,10-29-14-6-4-13(5-7-14)24(27)28)16(25)23-12-3-2-11(9-22)15(8-12)18(19,20)21/h2-8,16,23,25-26H,10H2,1H3/t16-,17+/m1/s1

>  <InChIKey>  (28) 
INVUBEGZQHQAMY-SJORKVTESA-N

>  <SMILES>  (28) 
C[C@](COc1ccc(cc1)[N+](=O)[O-])(C(Nc2ccc(c(c2)C(F)(F)F)C#N)O)O

>  <MissingHeavyAtoms>  (28) 
0

>  <Model>  (28) 
1

>  <AltIds>  (28) 


>  <pKI>  (28) 
9.27

>  <ChemblID>  (28) 
-

>  <standardized_canonical_smiles>  (28) 
C[C@](O)(COc1ccc(C#N)cc1)C(=O)Nc1ccc(C#N)c(I)c1

$$$$
3B66_B66_A_1
     RDKit          3D

 29 30  0  0  0  0  0  0  0  0999 V2000
   28.9970    2.0250    8.0780 C   0  0  0  0  0  0  0  0  0  0  0  0
   28.7690    1.8740    9.4420 C   0  0  0  0  0  0  0  0  0  0  0  0
   29.4310    0.8790   10.1560 C   0  0  0  0  0  0  0  0  0  0  0  0
   29.1910    0.7140   11.4540 N   0  0  0  0  0  0  0  0  0  0  0  0
   29.9060   -0.2640   12.1960 O   0  0  0  0  0  0  0  0  0  0  0  0
   28.2450    1.5410   12.1200 O   0  0  0  0  0  0  0  0  0  0  0  0
   30.3220    0.0360    9.4960 C   0  0  0  0  0  0  0  0  0  0  0  0
   30.5480    0.1870    8.1310 C   0  0  0  0  0  0  0  0  0  0  0  0
   29.8860    1.1820    7.4160 C   0  0  0  0  0  0  0  0  0  0  0  0
   30.1260    1.3920    6.0930 O   0  0  0  0  0  0  0  0  0  0  0  0
   30.1390    0.1900    5.3060 C   0  0  0  0  0  0  0  0  0  0  0  0
   29.7610    0.5660    3.8830 C   0  0  0  0  0  0  0  0  0  0  0  0
   30.7790    1.4060    3.3330 O   0  0  0  0  0  0  0  0  0  0  0  0
   29.6010   -0.7010    3.0400 C   0  0  0  0  0  0  0  0  0  0  0  0
   28.4450    1.3450    3.9240 C   0  0  0  0  0  0  0  0  0  0  0  0
   27.3800    0.7850    4.1810 O   0  0  0  0  0  0  0  0  0  0  0  0
   28.5940    2.6500    3.7080 N   0  0  0  0  0  0  0  0  0  0  0  0
   27.6250    3.5650    3.6920 C   0  0  0  0  0  0  0  0  0  0  0  0
   26.2820    3.2660    3.9120 C   0  0  0  0  0  0  0  0  0  0  0  0
   27.9940    4.8830    3.4500 C   0  0  0  0  0  0  0  0  0  0  0  0
   27.0230    5.8770    3.4310 C   0  0  0  0  0  0  0  0  0  0  0  0
   25.6850    5.5650    3.6540 C   0  0  0  0  0  0  0  0  0  0  0  0
   24.7650    6.6620    3.6250 C   0  0  0  0  0  0  0  0  0  0  0  0
   24.0390    7.5380    3.5940 N   0  0  0  0  0  0  0  0  0  0  0  0
   25.2890    4.2470    3.8990 C   0  0  0  0  0  0  0  0  0  0  0  0
   23.8300    3.8490    4.1950 C   0  0  0  0  0  0  0  0  0  0  0  0
   23.5590    4.0570    5.4800 F   0  0  0  0  0  0  0  0  0  0  0  0
   22.9440    4.5270    3.4710 F   0  0  0  0  0  0  0  0  0  0  0  0
   23.5910    2.5650    3.9400 F   0  0  0  0  0  0  0  0  0  0  0  0
  2  1  2  0
  9  1  1  0
  3  2  1  0
  4  3  1  0
  7  3  2  0
  5  4  1  0
  6  4  2  0
  8  7  1  0
  9  8  2  0
 10  9  1  0
 11 10  1  0
 12 11  1  0
 13 12  1  0
 14 12  1  0
 15 12  1  0
 16 15  1  0
 17 15  1  0
 18 17  1  0
 19 18  2  0
 20 18  1  0
 25 19  1  0
 21 20  2  0
 22 21  1  0
 23 22  1  0
 25 22  2  0
 24 23  3  0
 26 25  1  0
 27 26  1  0
 28 26  1  0
 29 26  1  0
M  CHG  2   4   1   5  -1
A    1
C17
A    2
C18
A    3
C21
A    4
N19
A    5
O20
A    6
O19
A    7
C20
A    8
C19
A    9
C16
A   10
O14
A   11
C13
A   12
C11
A   13
O11
A   14
C12
A   15
C10
A   16
O10
A   17
N9
A   18
C6
A   19
C5
A   20
C1
A   21
C2
A   22
C3
A   23
C8
A   24
N8
A   25
C4
A   26
C7
A   27
F2
A   28
F3
A   29
F1
M  END
>  <Id>  (29) 
3B66_B66_A_1

>  <ChainId>  (29) 
A

>  <AsymId>  (29) 
B

>  <SeqNum>  (29) 
1

>  <Name>  (29) 
4-{[(1R,2S)-1,2-dihydroxy-2-methyl-3-(4-nitrophenoxy)propyl]amino}-2-(trifluoromethyl)benzonitrile

>  <SystematicName>  (29) 
4-[[(2S)-1,2-dihydroxy-2-methyl-3-(4-nitrophenoxy)propyl]amino]-2-(trifluoromethyl)benzonitrile

>  <Synonyms>  (29) 


>  <Type>  (29) 
NON-POLYMER

>  <Formula>  (29) 
C18 H16 F3 N3 O5

>  <ObservedFormula>  (29) 
C18 F3 N3 O5

>  <MolecularWeight>  (29) 
411.332

>  <ModifiedDate>  (29) 
2011-06-04

>  <Parent>  (29) 


>  <OneLetterCode>  (29) 


>  <SubcomponentList>  (29) 


>  <AmbiguousFlag>  (29) 
N

>  <InsertionCode>  (29) 


>  <InstanceId>  (29) 
3B66_B66_A_1

>  <ChemCompId>  (29) 
B66

>  <PdbId>  (29) 
3B66

>  <ResidueNumber>  (29) 
1

>  <InChI>  (29) 
InChI=1S/C18H16F3N3O5/c1-17(26,10-29-14-6-4-13(5-7-14)24(27)28)16(25)23-12-3-2-11(9-22)15(8-12)18(19,20)21/h2-8,16,23,25-26H,10H2,1H3/t16-,17+/m1/s1

>  <InChIKey>  (29) 
INVUBEGZQHQAMY-SJORKVTESA-N

>  <SMILES>  (29) 
C[C@](COc1ccc(cc1)[N+](=O)[O-])(C(Nc2ccc(c(c2)C(F)(F)F)C#N)O)O

>  <MissingHeavyAtoms>  (29) 
0

>  <Model>  (29) 
1

>  <AltIds>  (29) 


>  <pKI>  (29) 
8.6

>  <ChemblID>  (29) 
-

>  <standardized_canonical_smiles>  (29) 
C[C@](O)(COc1ccc([N+](=O)[O-])cc1)C(O)Nc1ccc(C#N)c(C(F)(F)F)c1

$$$$
3B67_B67_A_1
     RDKit          3D

 32 33  0  0  0  0  0  0  0  0999 V2000
   23.7470    2.4230    4.4340 F   0  0  0  0  0  0  0  0  0  0  0  0
   23.8270    3.7490    4.5070 C   0  0  0  0  0  0  0  0  0  0  0  0
   23.5120    4.0860    5.7540 F   0  0  0  0  0  0  0  0  0  0  0  0
   22.9060    4.2170    3.6700 F   0  0  0  0  0  0  0  0  0  0  0  0
   25.2420    4.2460    4.1560 C   0  0  0  0  0  0  0  0  0  0  0  0
   26.2920    3.3280    4.1510 C   0  0  0  0  0  0  0  0  0  0  0  0
   25.5280    5.5560    3.7640 C   0  0  0  0  0  0  0  0  0  0  0  0
   24.6900    6.5790    3.9270 N   0  0  0  0  0  0  0  0  0  0  0  0
   25.0450    7.8390    3.3770 O   0  0  0  0  0  0  0  0  0  0  0  0
   23.4250    6.4580    4.5610 O   0  0  0  0  0  0  0  0  0  0  0  0
   26.8160    5.8900    3.3570 C   0  0  0  0  0  0  0  0  0  0  0  0
   27.8490    4.9600    3.3530 C   0  0  0  0  0  0  0  0  0  0  0  0
   27.5890    3.6570    3.7650 C   0  0  0  0  0  0  0  0  0  0  0  0
   28.6020    2.7960    3.8380 N   0  0  0  0  0  0  0  0  0  0  0  0
   28.5010    1.5400    4.2710 C   0  0  0  0  0  0  0  0  0  0  0  0
   27.4580    1.0070    4.6460 O   0  0  0  0  0  0  0  0  0  0  0  0
   29.8210    0.7650    4.2880 C   0  0  0  0  0  0  0  0  0  0  0  0
   30.8560    1.5720    3.7200 O   0  0  0  0  0  0  0  0  0  0  0  0
   29.6730   -0.5380    3.5000 C   0  0  0  0  0  0  0  0  0  0  0  0
   30.1560    0.4360    5.7350 C   0  0  0  0  0  0  0  0  0  0  0  0
   30.4670    1.6020    6.5180 O   0  0  0  0  0  0  0  0  0  0  0  0
   29.7840    1.6280    7.6980 C   0  0  0  0  0  0  0  0  0  0  0  0
   28.7310    2.5220    7.8790 C   0  0  0  0  0  0  0  0  0  0  0  0
   28.4000    3.3310    6.8500 F   0  0  0  0  0  0  0  0  0  0  0  0
   28.0500    2.5710    9.0970 C   0  0  0  0  0  0  0  0  0  0  0  0
   27.0690    3.4840    9.2820 F   0  0  0  0  0  0  0  0  0  0  0  0
   28.4160    1.7050   10.1290 C   0  0  0  0  0  0  0  0  0  0  0  0
   27.7200    1.7030   11.2880 F   0  0  0  0  0  0  0  0  0  0  0  0
   29.4750    0.8080    9.9520 C   0  0  0  0  0  0  0  0  0  0  0  0
   29.8010   -0.0670   10.9280 F   0  0  0  0  0  0  0  0  0  0  0  0
   30.1630    0.7850    8.7380 C   0  0  0  0  0  0  0  0  0  0  0  0
   31.2390   -0.0080    8.5390 F   0  0  0  0  0  0  0  0  0  0  0  0
  2  1  1  0
  3  2  1  0
  4  2  1  0
  5  2  1  0
  6  5  2  0
  7  5  1  0
 13  6  1  0
  8  7  1  0
 11  7  2  0
  9  8  2  0
 10  8  1  0
 12 11  1  0
 13 12  2  0
 14 13  1  0
 15 14  1  0
 16 15  2  0
 17 15  1  0
 18 17  1  0
 19 17  1  0
 20 17  1  0
 21 20  1  0
 22 21  1  0
 23 22  2  0
 31 22  1  0
 24 23  1  0
 25 23  1  0
 26 25  1  0
 27 25  2  0
 28 27  1  0
 29 27  1  0
 30 29  1  0
 31 29  2  0
 32 31  1  0
M  CHG  2   8   1  10  -1
A    1
F1
A    2
C7
A    3
F2
A    4
F3
A    5
C4
A    6
C5
A    7
C3
A    8
N8
A    9
O2
A   10
O1
A   11
C2
A   12
C1
A   13
C6
A   14
N9
A   15
C10
A   16
O10
A   17
C11
A   18
O11
A   19
C12
A   20
C13
A   21
O14
A   22
C16
A   23
C17
A   24
F17
A   25
C18
A   26
F18
A   27
C19
A   28
F19
A   29
C20
A   30
F20
A   31
C21
A   32
F21
M  END
>  <Id>  (30) 
3B67_B67_A_1

>  <ChainId>  (30) 
A

>  <AsymId>  (30) 
B

>  <SeqNum>  (30) 
1

>  <Name>  (30) 
(2S)-2-hydroxy-2-methyl-N-[4-nitro-3-(trifluoromethyl)phenyl]-3-(pentafluorophenoxy)propanamide

>  <SystematicName>  (30) 
(2S)-2-hydroxy-2-methyl-N-[4-nitro-3-(trifluoromethyl)phenyl]-3-(2,3,4,5,6-pentafluorophenoxy)propanamide

>  <Synonyms>  (30) 


>  <Type>  (30) 
NON-POLYMER

>  <Formula>  (30) 
C17 H10 F8 N2 O5

>  <ObservedFormula>  (30) 
C17 F8 N2 O5

>  <MolecularWeight>  (30) 
474.259

>  <ModifiedDate>  (30) 
2011-06-04

>  <Parent>  (30) 


>  <OneLetterCode>  (30) 


>  <SubcomponentList>  (30) 


>  <AmbiguousFlag>  (30) 
N

>  <InsertionCode>  (30) 


>  <InstanceId>  (30) 
3B67_B67_A_1

>  <ChemCompId>  (30) 
B67

>  <PdbId>  (30) 
3B67

>  <ResidueNumber>  (30) 
1

>  <InChI>  (30) 
InChI=1S/C17H10F8N2O5/c1-16(29,5-32-14-12(21)10(19)9(18)11(20)13(14)22)15(28)26-6-2-3-8(27(30)31)7(4-6)17(23,24)25/h2-4,29H,5H2,1H3,(H,26,28)/t16-/m0/s1

>  <InChIKey>  (30) 
MMNRWNREMUMYQG-INIZCTEOSA-N

>  <SMILES>  (30) 
C[C@](COc1c(c(c(c(c1F)F)F)F)F)(C(=O)Nc2ccc(c(c2)C(F)(F)F)[N+](=O)[O-])O

>  <MissingHeavyAtoms>  (30) 
0

>  <Model>  (30) 
1

>  <AltIds>  (30) 


>  <pKI>  (30) 
8.85

>  <ChemblID>  (30) 
-

>  <standardized_canonical_smiles>  (30) 
C[C@](O)(COc1c(F)c(F)c(F)c(F)c1F)C(=O)Nc1ccc([N+](=O)[O-])c(C(F)(F)F)c1

$$$$
2YHD_AV6_A_1921
     RDKit          3D

 21 24  0  0  0  0  0  0  0  0999 V2000
   36.2180    7.8790   18.3740 C   0  0  0  0  0  0  0  0  0  0  0  0
   36.7990    9.0900   18.9480 C   0  0  0  0  0  0  0  0  0  0  0  0
   37.8270    9.7420   18.3180 C   0  0  0  0  0  0  0  0  0  0  0  0
   38.3090    9.2370   17.1260 C   0  0  0  0  0  0  0  0  0  0  0  0
   37.8020    8.0890   16.5360 C   0  0  0  0  0  0  0  0  0  0  0  0
   36.7570    7.3820   17.0950 C   0  0  0  0  0  0  0  0  0  0  0  0
   36.2160    6.2530   16.5130 C   0  0  0  0  0  0  0  0  0  0  0  0
   35.1810    5.6340   17.1940 C   0  0  0  0  0  0  0  0  0  0  0  0
   34.6390    6.0660   18.4070 C   0  0  0  0  0  0  0  0  0  0  0  0
   35.1240    7.1750   19.0490 C   0  0  0  0  0  0  0  0  0  0  0  0
   34.6580    7.6400   20.2060 N   0  0  0  0  0  0  0  0  0  0  0  0
   35.2290    8.8680   20.7600 C   0  0  0  0  0  0  0  0  0  0  0  0
   36.3210    9.5460   20.0800 N   0  0  0  0  0  0  0  0  0  0  0  0
   35.1250    9.2720   22.1570 C   0  0  0  0  0  0  0  0  0  0  0  0
   36.0870   10.1510   22.6860 C   0  0  0  0  0  0  0  0  0  0  0  0
   36.0150   10.5610   24.0110 C   0  0  0  0  0  0  0  0  0  0  0  0
   34.8950   10.0450   24.8040 C   0  0  0  0  0  0  0  0  0  0  0  0
   33.9740    9.2000   24.2240 C   0  0  0  0  0  0  0  0  0  0  0  0
   34.0800    8.8340   22.9060 C   0  0  0  0  0  0  0  0  0  0  0  0
   34.7290   10.3930   26.0940 O   0  0  0  0  0  0  0  0  0  0  0  0
   36.9390   11.3910   24.5560 O   0  0  0  0  0  0  0  0  0  0  0  0
  2  1  1  0
  6  1  2  0
 10  1  1  0
  3  2  2  0
 13  2  1  0
  4  3  1  0
  5  4  2  0
  6  5  1  0
  7  6  1  0
  8  7  2  0
  9  8  1  0
 10  9  2  0
 11 10  1  0
 12 11  1  0
 13 12  1  0
 14 12  1  0
 15 14  2  0
 19 14  1  0
 16 15  1  0
 17 16  2  0
 21 16  1  0
 18 17  1  0
 20 17  1  0
 19 18  2  0
A    1
C1
A    2
C2
A    3
C3
A    4
C4
A    5
C5
A    6
C6
A    7
C7
A    8
C8
A    9
C9
A   10
C10
A   11
N11
A   12
C12
A   13
N13
A   14
C15
A   15
C16
A   16
C17
A   17
C18
A   18
C19
A   19
C20
A   20
O21
A   21
O22
M  END
>  <Id>  (31) 
2YHD_AV6_A_1921

>  <ChainId>  (31) 
A

>  <AsymId>  (31) 
D

>  <SeqNum>  (31) 
1921

>  <Name>  (31) 
4-(2,3-dihydro-1H-perimidin-2-yl)benzene-1,2-diol

>  <SystematicName>  (31) 
4-(2,3-dihydro-1H-perimidin-2-yl)benzene-1,2-diol

>  <Synonyms>  (31) 
4-{2,4-DIAZATRICYCLO[7.3.1.0]TRIDECA- 1(12),5,7,9(13),10-PENTAEN-3-YL}BENZENE-1,2-DIOL

>  <Type>  (31) 
NON-POLYMER

>  <Formula>  (31) 
C17 H14 N2 O2

>  <ObservedFormula>  (31) 
C17 N2 O2

>  <MolecularWeight>  (31) 
278.305

>  <ModifiedDate>  (31) 
2011-09-16

>  <Parent>  (31) 


>  <OneLetterCode>  (31) 


>  <SubcomponentList>  (31) 


>  <AmbiguousFlag>  (31) 
N

>  <InsertionCode>  (31) 


>  <InstanceId>  (31) 
2YHD_AV6_A_1921

>  <ChemCompId>  (31) 
AV6

>  <PdbId>  (31) 
2YHD

>  <ResidueNumber>  (31) 
1921

>  <InChI>  (31) 
InChI=1S/C17H14N2O2/c20-14-8-7-11(9-15(14)21)17-18-12-5-1-3-10-4-2-6-13(19-17)16(10)12/h1-9,17-21H

>  <InChIKey>  (31) 
RBGFUFBYYJRGBW-UHFFFAOYSA-N

>  <SMILES>  (31) 
c1cc2cccc3c2c(c1)NC(N3)c4ccc(c(c4)O)O

>  <MissingHeavyAtoms>  (31) 
0

>  <Model>  (31) 
1

>  <AltIds>  (31) 


>  <pKI>  (31) 
4.64

>  <ChemblID>  (31) 
-

>  <standardized_canonical_smiles>  (31) 
Oc1ccc(C2Nc3cccc4cccc(c34)N2)cc1O

$$$$
