5L7F_R47_B_307
     RDKit          3D

 52 56  0  0  0  0  0  0  0  0999 V2000
    9.7640   -7.0360   39.1970 O   0  0  0  0  0  0  0  0  0  0  0  0
   12.9420   -3.6120   41.7560 N   0  0  0  0  0  0  0  0  0  0  0  0
   12.2160   -4.7290   41.8780 O   0  0  0  0  0  0  0  0  0  0  0  0
    9.1940   -5.9990   39.3590 C   0  0  0  0  0  0  0  0  0  0  0  0
    8.7510   -5.5910   40.7280 C   0  0  0  0  0  0  0  0  0  0  0  0
    9.8980   -5.6790   41.6810 C   0  0  0  0  0  0  0  0  0  0  0  0
   10.7850   -3.2420   41.2300 C   0  0  0  0  0  0  0  0  0  0  0  0
   12.0960   -2.6890   41.3310 C   0  0  0  0  0  0  0  0  0  0  0  0
   12.5520   -1.3000   41.1320 C   0  0  0  0  0  0  0  0  0  0  0  0
   13.9410   -0.9940   41.4000 C   0  0  0  0  0  0  0  0  0  0  0  0
   14.3760    0.3150   41.2330 C   0  0  0  0  0  0  0  0  0  0  0  0
   13.4660    1.3040   40.8590 C   0  0  0  0  0  0  0  0  0  0  0  0
   12.1390    0.9740   40.6030 C   0  0  0  0  0  0  0  0  0  0  0  0
   11.7070   -0.3300   40.7420 C   0  0  0  0  0  0  0  0  0  0  0  0
   10.9150   -4.5840   41.5540 C   0  0  0  0  0  0  0  0  0  0  0  0
   17.4220    4.5640   40.0580 Cl  0  0  0  0  0  0  0  0  0  0  0  0
   15.6790    4.2700   40.2610 C   0  0  0  0  0  0  0  0  0  0  0  0
   15.2810    2.9710   40.4810 C   0  0  0  0  0  0  0  0  0  0  0  0
   14.7690    5.2860   40.2040 C   0  0  0  0  0  0  0  0  0  0  0  0
   13.4330    5.0200   40.3520 C   0  0  0  0  0  0  0  0  0  0  0  0
   12.9920    3.7350   40.5330 C   0  0  0  0  0  0  0  0  0  0  0  0
   13.8980    2.6940   40.6360 C   0  0  0  0  0  0  0  0  0  0  0  0
    7.7130   -6.6200   41.1360 C   0  0  0  0  0  0  0  0  0  0  0  0
    6.7790   -6.1090   42.5910 P   0  0  0  0  0  0  0  0  0  0  0  0
    6.3680   -4.7040   42.4030 O   0  0  0  0  0  0  0  0  0  0  0  0
    7.5670   -6.3120   43.9570 O   0  0  0  0  0  0  0  0  0  0  0  0
    5.2890   -7.0780   42.6150 C   0  0  0  0  0  0  0  0  0  0  0  0
    4.1070   -6.4790   42.9470 C   0  0  0  0  0  0  0  0  0  0  0  0
    2.9160   -7.2080   42.9890 C   0  0  0  0  0  0  0  0  0  0  0  0
    2.9200   -8.5900   42.7270 C   0  0  0  0  0  0  0  0  0  0  0  0
    1.2790   -9.5800   42.8570 Br  0  0  0  0  0  0  0  0  0  0  0  0
    4.1140   -9.2360   42.4120 C   0  0  0  0  0  0  0  0  0  0  0  0
    5.3350   -8.4640   42.3370 C   0  0  0  0  0  0  0  0  0  0  0  0
    8.8440   -5.2270   38.3450 N   0  0  0  0  0  0  0  0  0  0  0  0
    9.1040   -5.6280   36.9670 C   0  0  0  0  0  0  0  0  0  0  0  0
   10.1880   -5.0230   36.2360 C   0  0  0  0  0  0  0  0  0  0  0  0
   10.4780   -3.8840   36.4000 O   0  0  0  0  0  0  0  0  0  0  0  0
    7.8360   -5.3330   36.1230 C   0  0  0  0  0  0  0  0  0  0  0  0
    6.5740   -5.7530   36.8570 C   0  0  0  0  0  0  0  0  0  0  0  0
    5.3310   -5.1470   36.3140 C   0  0  0  0  0  0  0  0  0  0  0  0
    4.9440   -3.9370   36.7780 O   0  0  0  0  0  0  0  0  0  0  0  0
    4.6980   -5.8220   35.4890 O   0  0  0  0  0  0  0  0  0  0  0  0
   10.7300   -5.8030   35.3110 N   0  0  0  0  0  0  0  0  0  0  0  0
   11.7270   -5.3390   34.3870 C   0  0  0  0  0  0  0  0  0  0  0  0
   10.8270   -4.5730   33.4000 C   0  0  0  0  0  0  0  0  0  0  0  0
    9.7730   -5.1080   33.0040 O   0  0  0  0  0  0  0  0  0  0  0  0
   12.4420   -6.5020   33.7710 C   0  0  0  0  0  0  0  0  0  0  0  0
   12.9640   -6.1250   32.3820 C   0  0  0  0  0  0  0  0  0  0  0  0
   14.0690   -7.0790   31.9610 C   0  0  0  0  0  0  0  0  0  0  0  0
   14.5790   -7.9920   32.7760 O   0  0  0  0  0  0  0  0  0  0  0  0
   14.5190   -6.9940   30.8280 O   0  0  0  0  0  0  0  0  0  0  0  0
   11.1880   -3.4150   32.8780 N   0  0  0  0  0  0  0  0  0  0  0  0
  4  1  2  0
  3  2  1  0
  8  2  2  0
 15  3  1  0
  5  4  1  0
 34  4  1  0
  6  5  1  0
 23  5  1  0
 15  6  1  0
  8  7  1  0
 15  7  2  0
  9  8  1  0
 10  9  2  0
 14  9  1  0
 11 10  1  0
 12 11  2  0
 13 12  1  0
 22 12  1  0
 14 13  2  0
 17 16  1  0
 18 17  2  0
 19 17  1  0
 22 18  1  0
 20 19  2  0
 21 20  1  0
 22 21  2  0
 24 23  1  0
 25 24  1  0
 26 24  2  0
 27 24  1  0
 28 27  2  0
 33 27  1  0
 29 28  1  0
 30 29  2  0
 31 30  1  0
 32 30  1  0
 33 32  2  0
 35 34  1  0
 36 35  1  0
 38 35  1  0
 37 36  2  0
 43 36  1  0
 39 38  1  0
 40 39  1  0
 41 40  2  0
 42 40  1  0
 44 43  1  0
 45 44  1  0
 47 44  1  0
 46 45  2  0
 52 45  1  0
 48 47  1  0
 49 48  1  0
 50 49  2  0
 51 49  1  0
 52 47  1  0
A    1
O4
A    2
N1
A    3
O1
A    4
C25
A    5
C17
A    6
C16
A    7
C14
A    8
C13
A    9
C12
A   10
C11
A   11
C10
A   12
C7
A   13
C8
A   14
C9
A   15
C15
A   16
CL1
A   17
C1
A   18
C2
A   19
C3
A   20
C4
A   21
C5
A   22
C6
A   23
C18
A   24
P1
A   25
O2
A   26
O3
A   27
C19
A   28
C20
A   29
C21
A   30
C22
A   31
BR1
A   32
C23
A   33
C24
A   34
N2
A   35
C26
A   36
C30
A   37
O7
A   38
C27
A   39
C28
A   40
C29
A   41
O5
A   42
O6
A   43
N3
A   44
C31
A   45
C35
A   46
O10
A   47
C32
A   48
C33
A   49
C34
A   50
O8
A   51
O9
A   52
N4
M  END
>  <Id>  (1) 
5L7F_R47_B_307

>  <ChainId>  (1) 
B

>  <AsymId>  (1) 
S

>  <SeqNum>  (1) 
307

>  <Name>  (1) 
N-[(2S)-3-[(S)-(4-bromophenyl)(hydroxy)phosphoryl]-2-{[3-(3'-chlorobiphenyl-4-yl)-1,2-oxazol-5-yl]methyl}propanoyl]-L-alpha-glutamyl-L-alpha-glutamine

>  <SystematicName>  (1) 
(4S)-5-azanyl-4-[[(2S)-2-[[(2S)-2-[[(4-bromophenyl)-oxidanyl-phosphoryl]methyl]-3-[3-[4-(3-chlorophenyl)phenyl]-1,2-oxazol-5-yl]propanoyl]amino]-5-oxidanyl-5-oxidanylidene-pentanoyl]amino]-5-oxidanylidene-pentanoic acid

>  <Synonyms>  (1) 
RXP470.1

>  <Type>  (1) 
peptide-like

>  <Formula>  (1) 
C35 H35 Br Cl N4 O10 P

>  <ObservedFormula>  (1) 
P Br C35 Cl N4 O10

>  <MolecularWeight>  (1) 
818.004

>  <ModifiedDate>  (1) 
2013-02-01

>  <Parent>  (1) 


>  <OneLetterCode>  (1) 


>  <SubcomponentList>  (1) 
0YL GLU GLU NH2

>  <AmbiguousFlag>  (1) 
N

>  <InsertionCode>  (1) 


>  <InstanceId>  (1) 
5L7F_R47_B_307

>  <ChemCompId>  (1) 
R47

>  <PdbId>  (1) 
5L7F

>  <ResidueNumber>  (1) 
307

>  <InChI>  (1) 
InChI=1S/C35H35BrClN4O10P/c36-24-8-10-27(11-9-24)52(49,50)19-23(34(47)40-29(13-15-32(44)45)35(48)39-28(33(38)46)12-14-31(42)43)17-26-18-30(41-51-26)21-6-4-20(5-7-21)22-2-1-3-25(37)16-22/h1-11,16,18,23,28-29H,12-15,17,19H2,(H2,38,46)(H,39,48)(H,40,47)(H,42,43)(H,44,45)(H,49,50)/t23-,28+,29+/m1/s1

>  <InChIKey>  (1) 
PTUCPHGSAFOJAU-MGONOCMRSA-N

>  <SMILES>  (1) 
c1cc(cc(c1)Cl)c2ccc(cc2)c3cc(on3)C[C@H](CP(=O)(c4ccc(cc4)Br)O)C(=O)N[C@@H](CCC(=O)O)C(=O)N[C@@H](CCC(=O)O)C(=O)N

>  <MissingHeavyAtoms>  (1) 
0

>  <Model>  (1) 
1

>  <AltIds>  (1) 


>  <pKI>  (1) 
9.64

>  <ChemblID>  (1) 
CHEMBL507420

>  <standardized_canonical_smiles>  (1) 
NC(=O)[C@H](CCC(=O)O)NC(=O)[C@H](CCC(=O)O)NC(=O)[C@H](Cc1cc(-c2ccc(-c3cccc(Cl)c3)cc2)no1)CP(=O)(O)c1ccc(Br)cc1

$$$$
5CZM_R47_A_306
     RDKit          3D

 52 55  0  0  0  0  0  0  0  0999 V2000
    9.8790   26.5400    4.2230 O   0  0  0  0  0  0  0  0  0  0  0  0
    6.5890   22.7060    5.5780 N   0  0  0  0  0  0  0  0  0  0  0  0
    7.7880   22.9780    4.8790 O   0  0  0  0  0  0  0  0  0  0  0  0
    8.9620   26.7190    3.4490 C   0  0  0  0  0  0  0  0  0  0  0  0
    8.5640   25.6850    2.4530 C   0  0  0  0  0  0  0  0  0  0  0  0
    8.7000   24.3060    3.0730 C   0  0  0  0  0  0  0  0  0  0  0  0
    6.2230   24.2270    3.9950 C   0  0  0  0  0  0  0  0  0  0  0  0
    5.6840   23.4690    5.0290 C   0  0  0  0  0  0  0  0  0  0  0  0
    4.2860   23.4060    5.5160 C   0  0  0  0  0  0  0  0  0  0  0  0
    3.3110   24.1070    4.8180 C   0  0  0  0  0  0  0  0  0  0  0  0
    1.9910   24.0550    5.2280 C   0  0  0  0  0  0  0  0  0  0  0  0
    1.6560   23.2960    6.3370 C   0  0  0  0  0  0  0  0  0  0  0  0
    2.6210   22.5690    7.0350 C   0  0  0  0  0  0  0  0  0  0  0  0
    3.9460   22.6200    6.6180 C   0  0  0  0  0  0  0  0  0  0  0  0
    7.5240   23.9100    3.9210 C   0  0  0  0  0  0  0  0  0  0  0  0
   -2.3200   20.6160    8.2370 Cl  0  0  0  0  0  0  0  0  0  0  0  0
   -1.6430   22.0740    7.6060 C   0  0  0  0  0  0  0  0  0  0  0  0
   -0.3050   22.0850    7.2480 C   0  0  0  0  0  0  0  0  0  0  0  0
   -2.4400   23.2000    7.4630 C   0  0  0  0  0  0  0  0  0  0  0  0
   -1.8890   24.3590    6.9490 C   0  0  0  0  0  0  0  0  0  0  0  0
   -0.5480   24.3750    6.5880 C   0  0  0  0  0  0  0  0  0  0  0  0
    0.2410   23.2480    6.7480 C   0  0  0  0  0  0  0  0  0  0  0  0
    9.5730   25.8040    1.3360 C   0  0  0  0  0  0  0  0  0  0  0  0
    9.1570   24.9780   -0.2150 P   0  0  0  0  0  0  0  0  0  0  0  0
    9.4580   23.4820   -0.1250 O   0  0  0  0  0  0  0  0  0  0  0  0
    7.7170   25.2610   -0.5280 O   0  0  0  0  0  0  0  0  0  0  0  0
   10.2280   25.7470   -1.4220 C   0  0  0  0  0  0  0  0  0  0  0  0
    9.7170   26.3680   -2.5550 C   0  0  0  0  0  0  0  0  0  0  0  0
   10.5900   26.9560   -3.4670 C   0  0  0  0  0  0  0  0  0  0  0  0
   11.9580   26.9140   -3.2270 C   0  0  0  0  0  0  0  0  0  0  0  0
   13.1640   27.7060   -4.4450 Br  0  0  0  0  0  0  0  0  0  0  0  0
   12.4690   26.3000   -2.0970 C   0  0  0  0  0  0  0  0  0  0  0  0
   11.5980   25.7100   -1.1950 C   0  0  0  0  0  0  0  0  0  0  0  0
    8.2620   27.8410    3.4040 N   0  0  0  0  0  0  0  0  0  0  0  0
    8.5920   28.9390    4.2890 C   0  0  0  0  0  0  0  0  0  0  0  0
    7.8460   28.9770    5.5840 C   0  0  0  0  0  0  0  0  0  0  0  0
    6.7020   28.5890    5.6920 O   0  0  0  0  0  0  0  0  0  0  0  0
    8.3450   30.2500    3.5450 C   0  0  0  0  0  0  0  0  0  0  0  0
    9.2930   30.4400    2.3700 C   0  0  0  0  0  0  0  0  0  0  0  0
    9.1940   31.8140    1.7480 C   0  0  0  0  0  0  0  0  0  0  0  0
    8.5230   31.9950    0.7440 O   0  0  0  0  0  0  0  0  0  0  0  0
    9.8800   32.7570    2.3880 O   0  0  0  0  0  0  0  0  0  0  0  0
    8.5050   29.5040    6.6000 N   0  0  0  0  0  0  0  0  0  0  0  0
    7.9060   29.6400    7.9020 C   0  0  0  0  0  0  0  0  0  0  0  0
    6.8060   30.6700    7.8980 C   0  0  0  0  0  0  0  0  0  0  0  0
    5.7890   30.4880    8.5560 O   0  0  0  0  0  0  0  0  0  0  0  0
    9.0200   30.0950    8.8240 C   0  0  0  0  0  0  0  0  0  0  0  0
    8.6280   30.1740   10.2830 C   0  0  0  0  0  0  0  0  0  0  0  0
    9.8930   30.3660   11.0800 C   0  0  0  0  0  0  0  0  0  0  0  0
   10.3700   31.4800   11.2040 O   0  0  0  0  0  0  0  0  0  0  0  0
   10.5050   29.3090   11.6170 O   0  0  0  0  0  0  0  0  0  0  0  0
    7.0000   31.7630    7.1580 N   0  0  0  0  0  0  0  0  0  0  0  0
  4  1  2  0
  3  2  1  0
  8  2  2  0
 15  3  1  0
  5  4  1  0
 34  4  1  0
  6  5  1  0
 23  5  1  0
 15  6  1  0
  8  7  1  0
 15  7  2  0
  9  8  1  0
 10  9  2  0
 14  9  1  0
 11 10  1  0
 12 11  2  0
 13 12  1  0
 22 12  1  0
 14 13  2  0
 17 16  1  0
 18 17  2  0
 19 17  1  0
 22 18  1  0
 20 19  2  0
 21 20  1  0
 22 21  2  0
 24 23  1  0
 25 24  1  0
 26 24  2  0
 27 24  1  0
 28 27  2  0
 33 27  1  0
 29 28  1  0
 30 29  2  0
 31 30  1  0
 32 30  1  0
 33 32  2  0
 35 34  1  0
 36 35  1  0
 38 35  1  0
 37 36  2  0
 43 36  1  0
 39 38  1  0
 40 39  1  0
 41 40  2  0
 42 40  1  0
 44 43  1  0
 45 44  1  0
 47 44  1  0
 46 45  2  0
 52 45  1  0
 48 47  1  0
 49 48  1  0
 50 49  2  0
 51 49  1  0
A    1
O4
A    2
N1
A    3
O1
A    4
C25
A    5
C17
A    6
C16
A    7
C14
A    8
C13
A    9
C12
A   10
C11
A   11
C10
A   12
C7
A   13
C8
A   14
C9
A   15
C15
A   16
CL1
A   17
C1
A   18
C2
A   19
C3
A   20
C4
A   21
C5
A   22
C6
A   23
C18
A   24
P1
A   25
O2
A   26
O3
A   27
C19
A   28
C20
A   29
C21
A   30
C22
A   31
BR1
A   32
C23
A   33
C24
A   34
N2
A   35
C26
A   36
C30
A   37
O7
A   38
C27
A   39
C28
A   40
C29
A   41
O5
A   42
O6
A   43
N3
A   44
C31
A   45
C35
A   46
O10
A   47
C32
A   48
C33
A   49
C34
A   50
O8
A   51
O9
A   52
N4
M  END
>  <Id>  (2) 
5CZM_R47_A_306

>  <ChainId>  (2) 
A

>  <AsymId>  (2) 
G

>  <SeqNum>  (2) 
306

>  <Name>  (2) 
N-[(2S)-3-[(S)-(4-bromophenyl)(hydroxy)phosphoryl]-2-{[3-(3'-chlorobiphenyl-4-yl)-1,2-oxazol-5-yl]methyl}propanoyl]-L-alpha-glutamyl-L-alpha-glutamine

>  <SystematicName>  (2) 
(4S)-5-azanyl-4-[[(2S)-2-[[(2S)-2-[[(4-bromophenyl)-oxidanyl-phosphoryl]methyl]-3-[3-[4-(3-chlorophenyl)phenyl]-1,2-oxazol-5-yl]propanoyl]amino]-5-oxidanyl-5-oxidanylidene-pentanoyl]amino]-5-oxidanylidene-pentanoic acid

>  <Synonyms>  (2) 
RXP470.1

>  <Type>  (2) 
peptide-like

>  <Formula>  (2) 
C35 H35 Br Cl N4 O10 P

>  <ObservedFormula>  (2) 
P Br C35 Cl N4 O10

>  <MolecularWeight>  (2) 
818.004

>  <ModifiedDate>  (2) 
2013-02-01

>  <Parent>  (2) 


>  <OneLetterCode>  (2) 


>  <SubcomponentList>  (2) 
0YL GLU GLU NH2

>  <AmbiguousFlag>  (2) 
N

>  <InsertionCode>  (2) 


>  <InstanceId>  (2) 
5CZM_R47_A_306

>  <ChemCompId>  (2) 
R47

>  <PdbId>  (2) 
5CZM

>  <ResidueNumber>  (2) 
306

>  <InChI>  (2) 
InChI=1S/C35H35BrClN4O10P/c36-24-8-10-27(11-9-24)52(49,50)19-23(34(47)40-29(13-15-32(44)45)35(48)39-28(33(38)46)12-14-31(42)43)17-26-18-30(41-51-26)21-6-4-20(5-7-21)22-2-1-3-25(37)16-22/h1-11,16,18,23,28-29H,12-15,17,19H2,(H2,38,46)(H,39,48)(H,40,47)(H,42,43)(H,44,45)(H,49,50)/t23-,28+,29+/m1/s1

>  <InChIKey>  (2) 
PTUCPHGSAFOJAU-MGONOCMRSA-N

>  <SMILES>  (2) 
c1cc(cc(c1)Cl)c2ccc(cc2)c3cc(on3)C[C@H](CP(=O)(c4ccc(cc4)Br)O)C(=O)N[C@@H](CCC(=O)O)C(=O)N[C@@H](CCC(=O)O)C(=O)N

>  <MissingHeavyAtoms>  (2) 
0

>  <Model>  (2) 
1

>  <AltIds>  (2) 


>  <pKI>  (2) 
9.64

>  <ChemblID>  (2) 
CHEMBL507420

>  <standardized_canonical_smiles>  (2) 
NC(=O)[C@H](CCC(=O)O)NC(=O)[C@H](CCC(=O)O)NC(=O)[C@H](Cc1cc(-c2ccc(-c3cccc(Cl)c3)cc2)no1)CP(=O)(O)c1ccc(Br)cc1

$$$$
5L79_R47_A_306
     RDKit          3D

 52 56  0  0  0  0  0  0  0  0999 V2000
    9.6870   25.8890    5.1170 O   0  0  0  0  0  0  0  0  0  0  0  0
    6.6160   22.2400    6.3050 N   0  0  0  0  0  0  0  0  0  0  0  0
    7.7390   22.5180    5.6570 O   0  0  0  0  0  0  0  0  0  0  0  0
    8.9070   26.2260    4.2400 C   0  0  0  0  0  0  0  0  0  0  0  0
    8.5090   25.2580    3.1730 C   0  0  0  0  0  0  0  0  0  0  0  0
    8.6890   23.8350    3.6830 C   0  0  0  0  0  0  0  0  0  0  0  0
    6.2170   23.6250    4.5860 C   0  0  0  0  0  0  0  0  0  0  0  0
    5.6450   22.9220    5.6560 C   0  0  0  0  0  0  0  0  0  0  0  0
    4.2050   22.8900    6.0440 C   0  0  0  0  0  0  0  0  0  0  0  0
    3.2660   23.6340    5.3450 C   0  0  0  0  0  0  0  0  0  0  0  0
    1.9250   23.5870    5.7150 C   0  0  0  0  0  0  0  0  0  0  0  0
    1.5250   22.7930    6.7840 C   0  0  0  0  0  0  0  0  0  0  0  0
    2.4670   22.0440    7.4810 C   0  0  0  0  0  0  0  0  0  0  0  0
    3.8060   22.0920    7.1100 C   0  0  0  0  0  0  0  0  0  0  0  0
    7.5830   23.3540    4.5990 C   0  0  0  0  0  0  0  0  0  0  0  0
   -2.4610   19.9140    8.5800 Cl  0  0  0  0  0  0  0  0  0  0  0  0
   -1.7750   21.4650    8.0060 C   0  0  0  0  0  0  0  0  0  0  0  0
   -0.4400   21.5330    7.6310 C   0  0  0  0  0  0  0  0  0  0  0  0
   -2.5800   22.5940    7.9360 C   0  0  0  0  0  0  0  0  0  0  0  0
   -2.0440   23.7950    7.4880 C   0  0  0  0  0  0  0  0  0  0  0  0
   -0.7080   23.8670    7.1110 C   0  0  0  0  0  0  0  0  0  0  0  0
    0.0950   22.7340    7.1840 C   0  0  0  0  0  0  0  0  0  0  0  0
    9.5260   25.4840    2.0590 C   0  0  0  0  0  0  0  0  0  0  0  0
    9.0470   24.7440    0.4750 P   0  0  0  0  0  0  0  0  0  0  0  0
    9.3120   23.1570    0.4990 O   0  0  0  0  0  0  0  0  0  0  0  0
    7.6230   25.0360    0.1990 O   0  0  0  0  0  0  0  0  0  0  0  0
   10.0370   25.4770   -0.7630 C   0  0  0  0  0  0  0  0  0  0  0  0
    9.4460   26.0200   -1.8970 C   0  0  0  0  0  0  0  0  0  0  0  0
   10.2350   26.6030   -2.8830 C   0  0  0  0  0  0  0  0  0  0  0  0
   11.6190   26.6380   -2.7380 C   0  0  0  0  0  0  0  0  0  0  0  0
   12.6830   27.4330   -4.0830 Br  0  0  0  0  0  0  0  0  0  0  0  0
   12.2130   26.0920   -1.6050 C   0  0  0  0  0  0  0  0  0  0  0  0
   11.4210   25.5080   -0.6210 C   0  0  0  0  0  0  0  0  0  0  0  0
    8.4010   27.4520    4.1390 N   0  0  0  0  0  0  0  0  0  0  0  0
    8.7360   28.5010    5.0870 C   0  0  0  0  0  0  0  0  0  0  0  0
    8.1880   28.3030    6.4670 C   0  0  0  0  0  0  0  0  0  0  0  0
    7.1860   27.6360    6.6580 O   0  0  0  0  0  0  0  0  0  0  0  0
    8.2520   29.8370    4.5320 C   0  0  0  0  0  0  0  0  0  0  0  0
    9.3910   30.8490    4.5240 C   0  0  0  0  0  0  0  0  0  0  0  0
    9.2870   31.6840    3.2710 C   0  0  0  0  0  0  0  0  0  0  0  0
    9.9510   32.6960    3.1410 O   0  0  0  0  0  0  0  0  0  0  0  0
    8.4660   31.3270    2.2880 O   0  0  0  0  0  0  0  0  0  0  0  0
    8.8630   28.9190    7.4330 N   0  0  0  0  0  0  0  0  0  0  0  0
    8.4530   28.8370    8.8170 C   0  0  0  0  0  0  0  0  0  0  0  0
    7.2340   29.6840    9.0250 C   0  0  0  0  0  0  0  0  0  0  0  0
    7.2350   30.8440    8.6510 O   0  0  0  0  0  0  0  0  0  0  0  0
    9.5800   29.3480    9.7120 C   0  0  0  0  0  0  0  0  0  0  0  0
    9.3030   29.0950   11.1900 C   0  0  0  0  0  0  0  0  0  0  0  0
   10.5300   29.4370   12.0050 C   0  0  0  0  0  0  0  0  0  0  0  0
   10.9900   30.5700   11.9940 O   0  0  0  0  0  0  0  0  0  0  0  0
   11.1220   28.5050   12.7480 O   0  0  0  0  0  0  0  0  0  0  0  0
    6.1780   29.1500    9.6230 N   0  0  0  0  0  0  0  0  0  0  0  0
  4  1  2  0
  3  2  1  0
  8  2  2  0
 15  3  1  0
  5  4  1  0
 34  4  1  0
  6  5  1  0
 23  5  1  0
 15  6  1  0
  8  7  1  0
 15  7  2  0
  9  8  1  0
 10  9  2  0
 14  9  1  0
 11 10  1  0
 12 11  2  0
 13 12  1  0
 22 12  1  0
 14 13  2  0
 17 16  1  0
 18 17  2  0
 19 17  1  0
 22 18  1  0
 20 19  2  0
 21 20  1  0
 22 21  2  0
 24 23  1  0
 25 24  1  0
 26 24  2  0
 27 24  1  0
 28 27  2  0
 33 27  1  0
 29 28  1  0
 30 29  2  0
 31 30  1  0
 32 30  1  0
 33 32  2  0
 35 34  1  0
 36 35  1  0
 38 35  1  0
 37 36  2  0
 43 36  1  0
 39 38  1  0
 40 39  1  0
 41 40  2  0
 42 40  1  0
 44 43  1  0
 45 44  1  0
 47 44  1  0
 46 45  2  0
 52 45  1  0
 48 47  1  0
 49 48  1  0
 50 49  2  0
 51 49  1  0
 47 52  1  0
A    1
O4
A    2
N1
A    3
O1
A    4
C25
A    5
C17
A    6
C16
A    7
C14
A    8
C13
A    9
C12
A   10
C11
A   11
C10
A   12
C7
A   13
C8
A   14
C9
A   15
C15
A   16
CL1
A   17
C1
A   18
C2
A   19
C3
A   20
C4
A   21
C5
A   22
C6
A   23
C18
A   24
P1
A   25
O2
A   26
O3
A   27
C19
A   28
C20
A   29
C21
A   30
C22
A   31
BR1
A   32
C23
A   33
C24
A   34
N2
A   35
C26
A   36
C30
A   37
O7
A   38
C27
A   39
C28
A   40
C29
A   41
O5
A   42
O6
A   43
N3
A   44
C31
A   45
C35
A   46
O10
A   47
C32
A   48
C33
A   49
C34
A   50
O8
A   51
O9
A   52
N4
M  END
>  <Id>  (3) 
5L79_R47_A_306

>  <ChainId>  (3) 
A

>  <AsymId>  (3) 
G

>  <SeqNum>  (3) 
306

>  <Name>  (3) 
N-[(2S)-3-[(S)-(4-bromophenyl)(hydroxy)phosphoryl]-2-{[3-(3'-chlorobiphenyl-4-yl)-1,2-oxazol-5-yl]methyl}propanoyl]-L-alpha-glutamyl-L-alpha-glutamine

>  <SystematicName>  (3) 
(4S)-5-azanyl-4-[[(2S)-2-[[(2S)-2-[[(4-bromophenyl)-oxidanyl-phosphoryl]methyl]-3-[3-[4-(3-chlorophenyl)phenyl]-1,2-oxazol-5-yl]propanoyl]amino]-5-oxidanyl-5-oxidanylidene-pentanoyl]amino]-5-oxidanylidene-pentanoic acid

>  <Synonyms>  (3) 
RXP470.1

>  <Type>  (3) 
peptide-like

>  <Formula>  (3) 
C35 H35 Br Cl N4 O10 P

>  <ObservedFormula>  (3) 
P Br C35 Cl N4 O10

>  <MolecularWeight>  (3) 
818.004

>  <ModifiedDate>  (3) 
2013-02-01

>  <Parent>  (3) 


>  <OneLetterCode>  (3) 


>  <SubcomponentList>  (3) 
0YL GLU GLU NH2

>  <AmbiguousFlag>  (3) 
N

>  <InsertionCode>  (3) 


>  <InstanceId>  (3) 
5L79_R47_A_306

>  <ChemCompId>  (3) 
R47

>  <PdbId>  (3) 
5L79

>  <ResidueNumber>  (3) 
306

>  <InChI>  (3) 
InChI=1S/C35H35BrClN4O10P/c36-24-8-10-27(11-9-24)52(49,50)19-23(34(47)40-29(13-15-32(44)45)35(48)39-28(33(38)46)12-14-31(42)43)17-26-18-30(41-51-26)21-6-4-20(5-7-21)22-2-1-3-25(37)16-22/h1-11,16,18,23,28-29H,12-15,17,19H2,(H2,38,46)(H,39,48)(H,40,47)(H,42,43)(H,44,45)(H,49,50)/t23-,28+,29+/m1/s1

>  <InChIKey>  (3) 
PTUCPHGSAFOJAU-MGONOCMRSA-N

>  <SMILES>  (3) 
c1cc(cc(c1)Cl)c2ccc(cc2)c3cc(on3)C[C@H](CP(=O)(c4ccc(cc4)Br)O)C(=O)N[C@@H](CCC(=O)O)C(=O)N[C@@H](CCC(=O)O)C(=O)N

>  <MissingHeavyAtoms>  (3) 
0

>  <Model>  (3) 
1

>  <AltIds>  (3) 


>  <pKI>  (3) 
9.64

>  <ChemblID>  (3) 
CHEMBL507420

>  <standardized_canonical_smiles>  (3) 
NC(=O)[C@H](CCC(=O)O)NC(=O)[C@H](CCC(=O)O)NC(=O)[C@H](Cc1cc(-c2ccc(-c3cccc(Cl)c3)cc2)no1)CP(=O)(O)c1ccc(Br)cc1

$$$$
4GQL_R47_A_306
     RDKit          3D

 52 55  0  0  0  0  0  0  0  0999 V2000
   10.1460   26.7400    4.2210 O   0  0  0  0  0  0  0  0  0  0  0  0
    6.8840   22.7070    5.4810 N   0  0  0  0  0  0  0  0  0  0  0  0
    7.9870   23.0080    4.8250 O   0  0  0  0  0  0  0  0  0  0  0  0
    9.2640   26.7970    3.4480 C   0  0  0  0  0  0  0  0  0  0  0  0
    8.8340   25.8690    2.4870 C   0  0  0  0  0  0  0  0  0  0  0  0
    8.9990   24.4640    3.1280 C   0  0  0  0  0  0  0  0  0  0  0  0
    6.6250   24.3890    4.0670 C   0  0  0  0  0  0  0  0  0  0  0  0
    6.0100   23.5500    5.0700 C   0  0  0  0  0  0  0  0  0  0  0  0
    4.6030   23.5130    5.5010 C   0  0  0  0  0  0  0  0  0  0  0  0
    4.2590   22.6740    6.6420 C   0  0  0  0  0  0  0  0  0  0  0  0
    2.9550   22.6470    7.0260 C   0  0  0  0  0  0  0  0  0  0  0  0
    1.9340   23.4260    6.2850 C   0  0  0  0  0  0  0  0  0  0  0  0
    2.3040   24.1550    5.1940 C   0  0  0  0  0  0  0  0  0  0  0  0
    3.6930   24.2020    4.7850 C   0  0  0  0  0  0  0  0  0  0  0  0
    7.8790   24.0420    4.0060 C   0  0  0  0  0  0  0  0  0  0  0  0
   -2.7450   25.3810    6.1110 Cl  0  0  0  0  0  0  0  0  0  0  0  0
   -1.7190   24.1770    6.6720 C   0  0  0  0  0  0  0  0  0  0  0  0
   -0.3420   24.3320    6.2990 C   0  0  0  0  0  0  0  0  0  0  0  0
   -2.2040   23.1290    7.3170 C   0  0  0  0  0  0  0  0  0  0  0  0
   -1.3220   22.0820    7.7080 C   0  0  0  0  0  0  0  0  0  0  0  0
   -0.0260   22.2230    7.4010 C   0  0  0  0  0  0  0  0  0  0  0  0
    0.5060   23.3710    6.6790 C   0  0  0  0  0  0  0  0  0  0  0  0
    9.7940   25.9890    1.2450 C   0  0  0  0  0  0  0  0  0  0  0  0
    9.2740   25.0130   -0.1960 P   0  0  0  0  0  0  0  0  0  0  0  0
    7.7200   25.3100   -0.3910 O   0  0  0  0  0  0  0  0  0  0  0  0
    9.5670   23.4880   -0.0830 O   0  0  0  0  0  0  0  0  0  0  0  0
   10.1700   25.7520   -1.5820 C   0  0  0  0  0  0  0  0  0  0  0  0
   11.6230   25.7090   -1.5520 C   0  0  0  0  0  0  0  0  0  0  0  0
   12.2970   26.2560   -2.6240 C   0  0  0  0  0  0  0  0  0  0  0  0
   11.5150   26.7850   -3.7890 C   0  0  0  0  0  0  0  0  0  0  0  0
   12.0680   27.4740   -5.5220 Br  0  0  0  0  0  0  0  0  0  0  0  0
   10.1990   26.7870   -3.7740 C   0  0  0  0  0  0  0  0  0  0  0  0
    9.4860   26.2910   -2.6360 C   0  0  0  0  0  0  0  0  0  0  0  0
    8.5350   27.9660    3.4590 N   0  0  0  0  0  0  0  0  0  0  0  0
    8.8660   29.1170    4.2900 C   0  0  0  0  0  0  0  0  0  0  0  0
    8.0420   29.1770    5.5640 C   0  0  0  0  0  0  0  0  0  0  0  0
    6.8710   28.7770    5.5850 O   0  0  0  0  0  0  0  0  0  0  0  0
    8.7150   30.4030    3.4740 C   0  0  0  0  0  0  0  0  0  0  0  0
    9.7720   30.5070    2.3870 C   0  0  0  0  0  0  0  0  0  0  0  0
    9.6560   31.7680    1.5410 C   0  0  0  0  0  0  0  0  0  0  0  0
   10.4800   32.6930    1.7260 O   0  0  0  0  0  0  0  0  0  0  0  0
    8.7700   31.8180    0.6660 O   0  0  0  0  0  0  0  0  0  0  0  0
    8.6440   29.6970    6.6270 N   0  0  0  0  0  0  0  0  0  0  0  0
    7.9020   29.9080    7.8630 C   0  0  0  0  0  0  0  0  0  0  0  0
    6.7470   30.8490    7.6430 C   0  0  0  0  0  0  0  0  0  0  0  0
    5.6190   30.5960    8.0990 O   0  0  0  0  0  0  0  0  0  0  0  0
    8.7980   30.5130    8.9280 C   0  0  0  0  0  0  0  0  0  0  0  0
    9.7270   29.5390    9.5280 C   0  0  0  0  0  0  0  0  0  0  0  0
   10.3320   30.0530   10.8070 C   0  0  0  0  0  0  0  0  0  0  0  0
   10.6330   29.2260   11.6930 O   0  0  0  0  0  0  0  0  0  0  0  0
   10.5090   31.2860   10.9140 O   0  0  0  0  0  0  0  0  0  0  0  0
    7.0390   31.9520    6.9620 N   0  0  0  0  0  0  0  0  0  0  0  0
  4  1  2  0
  3  2  1  0
  8  2  2  0
 15  3  1  0
  5  4  1  0
 34  4  1  0
  6  5  1  0
 23  5  1  0
 15  6  1  0
  8  7  1  0
 15  7  2  0
  9  8  1  0
 10  9  2  0
 14  9  1  0
 11 10  1  0
 12 11  2  0
 13 12  1  0
 22 12  1  0
 14 13  2  0
 17 16  1  0
 18 17  2  0
 19 17  1  0
 22 18  1  0
 20 19  2  0
 21 20  1  0
 22 21  2  0
 24 23  1  0
 25 24  1  0
 26 24  2  0
 27 24  1  0
 28 27  2  0
 33 27  1  0
 29 28  1  0
 30 29  2  0
 31 30  1  0
 32 30  1  0
 33 32  2  0
 35 34  1  0
 36 35  1  0
 38 35  1  0
 37 36  2  0
 43 36  1  0
 39 38  1  0
 40 39  1  0
 41 40  2  0
 42 40  1  0
 44 43  1  0
 45 44  1  0
 47 44  1  0
 46 45  2  0
 52 45  1  0
 48 47  1  0
 49 48  1  0
 50 49  2  0
 51 49  1  0
A    1
O4
A    2
N1
A    3
O1
A    4
C25
A    5
C17
A    6
C16
A    7
C14
A    8
C13
A    9
C12
A   10
C11
A   11
C10
A   12
C7
A   13
C8
A   14
C9
A   15
C15
A   16
CL1
A   17
C1
A   18
C2
A   19
C3
A   20
C4
A   21
C5
A   22
C6
A   23
C18
A   24
P1
A   25
O2
A   26
O3
A   27
C19
A   28
C20
A   29
C21
A   30
C22
A   31
BR1
A   32
C23
A   33
C24
A   34
N2
A   35
C26
A   36
C30
A   37
O7
A   38
C27
A   39
C28
A   40
C29
A   41
O5
A   42
O6
A   43
N3
A   44
C31
A   45
C35
A   46
O10
A   47
C32
A   48
C33
A   49
C34
A   50
O8
A   51
O9
A   52
N4
M  END
>  <Id>  (4) 
4GQL_R47_A_306

>  <ChainId>  (4) 
A

>  <AsymId>  (4) 
G

>  <SeqNum>  (4) 
306

>  <Name>  (4) 
N-[(2S)-3-[(S)-(4-bromophenyl)(hydroxy)phosphoryl]-2-{[3-(3'-chlorobiphenyl-4-yl)-1,2-oxazol-5-yl]methyl}propanoyl]-L-alpha-glutamyl-L-alpha-glutamine

>  <SystematicName>  (4) 
(4S)-5-azanyl-4-[[(2S)-2-[[(2S)-2-[[(4-bromophenyl)-oxidanyl-phosphoryl]methyl]-3-[3-[4-(3-chlorophenyl)phenyl]-1,2-oxazol-5-yl]propanoyl]amino]-5-oxidanyl-5-oxidanylidene-pentanoyl]amino]-5-oxidanylidene-pentanoic acid

>  <Synonyms>  (4) 
RXP470.1

>  <Type>  (4) 
peptide-like

>  <Formula>  (4) 
C35 H35 Br Cl N4 O10 P

>  <ObservedFormula>  (4) 
P Br C35 Cl N4 O10

>  <MolecularWeight>  (4) 
818.004

>  <ModifiedDate>  (4) 
2013-02-01

>  <Parent>  (4) 


>  <OneLetterCode>  (4) 


>  <SubcomponentList>  (4) 
0YL GLU GLU NH2

>  <AmbiguousFlag>  (4) 
N

>  <InsertionCode>  (4) 


>  <InstanceId>  (4) 
4GQL_R47_A_306

>  <ChemCompId>  (4) 
R47

>  <PdbId>  (4) 
4GQL

>  <ResidueNumber>  (4) 
306

>  <InChI>  (4) 
InChI=1S/C35H35BrClN4O10P/c36-24-8-10-27(11-9-24)52(49,50)19-23(34(47)40-29(13-15-32(44)45)35(48)39-28(33(38)46)12-14-31(42)43)17-26-18-30(41-51-26)21-6-4-20(5-7-21)22-2-1-3-25(37)16-22/h1-11,16,18,23,28-29H,12-15,17,19H2,(H2,38,46)(H,39,48)(H,40,47)(H,42,43)(H,44,45)(H,49,50)/t23-,28+,29+/m1/s1

>  <InChIKey>  (4) 
PTUCPHGSAFOJAU-MGONOCMRSA-N

>  <SMILES>  (4) 
c1cc(cc(c1)Cl)c2ccc(cc2)c3cc(on3)C[C@H](CP(=O)(c4ccc(cc4)Br)O)C(=O)N[C@@H](CCC(=O)O)C(=O)N[C@@H](CCC(=O)O)C(=O)N

>  <MissingHeavyAtoms>  (4) 
0

>  <Model>  (4) 
1

>  <AltIds>  (4) 


>  <pKI>  (4) 
9.64

>  <ChemblID>  (4) 
CHEMBL507420

>  <standardized_canonical_smiles>  (4) 
NC(=O)[C@H](CCC(=O)O)NC(=O)[C@H](CCC(=O)O)NC(=O)[C@H](Cc1cc(-c2ccc(-c3cccc(Cl)c3)cc2)no1)CP(=O)(O)c1ccc(Br)cc1

$$$$
5LAB_NGH_A_306
     RDKit          3D

 21 21  0  0  0  0  0  0  0  0999 V2000
    5.7800   25.6630    5.0950 C   0  0  0  0  0  0  0  0  0  0  0  0
    4.9690   24.5580    5.4030 C   0  0  0  0  0  0  0  0  0  0  0  0
    5.4570   23.2540    5.1770 C   0  0  0  0  0  0  0  0  0  0  0  0
    6.7190   23.0890    4.6520 C   0  0  0  0  0  0  0  0  0  0  0  0
    7.5130   24.1900    4.3570 C   0  0  0  0  0  0  0  0  0  0  0  0
    7.0700   25.5080    4.5450 C   0  0  0  0  0  0  0  0  0  0  0  0
    4.7570   22.1010    5.4780 O   0  0  0  0  0  0  0  0  0  0  0  0
    3.4890   22.0810    6.0970 C   0  0  0  0  0  0  0  0  0  0  0  0
    8.0250   26.7680    4.2670 S   0  0  0  0  0  0  0  0  0  0  0  0
    9.3690   26.3610    4.1480 O   0  0  0  0  0  0  0  0  0  0  0  0
    7.6180   27.9520    4.8490 O   0  0  0  0  0  0  0  0  0  0  0  0
    7.8560   27.1410    2.7150 N   0  0  0  0  0  0  0  0  0  0  0  0
    6.7260   28.0000    2.2220 C   0  0  0  0  0  0  0  0  0  0  0  0
    8.7080   26.5240    1.6570 C   0  0  0  0  0  0  0  0  0  0  0  0
    7.9950   25.3950    0.9080 C   0  0  0  0  0  0  0  0  0  0  0  0
    8.5770   24.2200    0.8780 N   0  0  0  0  0  0  0  0  0  0  0  0
    7.8350   23.1260    0.4980 O   0  0  0  0  0  0  0  0  0  0  0  0
    6.8930   25.4880    0.4020 O   0  0  0  0  0  0  0  0  0  0  0  0
    6.9230   29.4380    1.6530 C   0  0  0  0  0  0  0  0  0  0  0  0
    7.8600   30.4180    2.3150 C   0  0  0  0  0  0  0  0  0  0  0  0
    6.2950   29.8240    0.3080 C   0  0  0  0  0  0  0  0  0  0  0  0
  2  1  2  0
  6  1  1  0
  3  2  1  0
  4  3  2  0
  7  3  1  0
  5  4  1  0
  6  5  2  0
  9  6  1  0
  8  7  1  0
 10  9  2  0
 11  9  2  0
 12  9  1  0
 13 12  1  0
 14 12  1  0
 19 13  1  0
 15 14  1  0
 16 15  1  0
 18 15  2  0
 17 16  1  0
 20 19  1  0
 21 19  1  0
A    1
C1
A    2
C2
A    3
C3
A    4
C4
A    5
C5
A    6
C6
A    7
O1
A    8
C7
A    9
S1
A   10
O2
A   11
O3
A   12
N
A   13
C9
A   14
C10
A   15
C11
A   16
N1
A   17
O4
A   18
O5
A   19
C12
A   20
C13
A   21
C14
M  END
>  <Id>  (5) 
5LAB_NGH_A_306

>  <ChainId>  (5) 
A

>  <AsymId>  (5) 
G

>  <SeqNum>  (5) 
306

>  <Name>  (5) 
N-ISOBUTYL-N-[4-METHOXYPHENYLSULFONYL]GLYCYL HYDROXAMIC ACID

>  <SystematicName>  (5) 
N-hydroxy-2-[(4-methoxyphenyl)sulfonyl-(2-methylpropyl)amino]ethanamide

>  <Synonyms>  (5) 


>  <Type>  (5) 
NON-POLYMER

>  <Formula>  (5) 
C13 H20 N2 O5 S

>  <ObservedFormula>  (5) 
C13 S N2 O5

>  <MolecularWeight>  (5) 
316.373

>  <ModifiedDate>  (5) 
2011-06-04

>  <Parent>  (5) 


>  <OneLetterCode>  (5) 


>  <SubcomponentList>  (5) 


>  <AmbiguousFlag>  (5) 
N

>  <InsertionCode>  (5) 


>  <InstanceId>  (5) 
5LAB_NGH_A_306

>  <ChemCompId>  (5) 
NGH

>  <PdbId>  (5) 
5LAB

>  <ResidueNumber>  (5) 
306

>  <InChI>  (5) 
InChI=1S/C13H20N2O5S/c1-10(2)8-15(9-13(16)14-17)21(18,19)12-6-4-11(20-3)5-7-12/h4-7,10,17H,8-9H2,1-3H3,(H,14,16)

>  <InChIKey>  (5) 
JIRXORZYIXSWOB-UHFFFAOYSA-N

>  <SMILES>  (5) 
CC(C)C[N@](CC(=O)NO)S(=O)(=O)c1ccc(cc1)OC

>  <MissingHeavyAtoms>  (5) 
0

>  <Model>  (5) 
1

>  <AltIds>  (5) 


>  <pKI>  (5) 
8.37

>  <ChemblID>  (5) 
CHEMBL311932

>  <standardized_canonical_smiles>  (5) 
COc1ccc(S(=O)(=O)N(CC(=O)NO)CC(C)C)cc1

$$$$
1RMZ_NGH_A_269
     RDKit          3D

 21 21  0  0  0  0  0  0  0  0999 V2000
    5.6860   25.7730    5.1030 C   0  0  0  0  0  0  0  0  0  0  0  0
    4.8190   24.5880    5.4310 C   0  0  0  0  0  0  0  0  0  0  0  0
    5.3440   23.2220    5.0390 C   0  0  0  0  0  0  0  0  0  0  0  0
    6.7490   22.9920    4.6070 C   0  0  0  0  0  0  0  0  0  0  0  0
    7.5880   24.1570    4.3210 C   0  0  0  0  0  0  0  0  0  0  0  0
    6.9710   25.5300    4.3710 C   0  0  0  0  0  0  0  0  0  0  0  0
    4.8060   22.0520    5.6080 O   0  0  0  0  0  0  0  0  0  0  0  0
    3.4810   22.1230    6.1270 C   0  0  0  0  0  0  0  0  0  0  0  0
    8.0310   26.8030    4.1980 S   0  0  0  0  0  0  0  0  0  0  0  0
    9.4750   26.2970    4.2240 O   0  0  0  0  0  0  0  0  0  0  0  0
    7.7140   27.9250    5.2210 O   0  0  0  0  0  0  0  0  0  0  0  0
    7.8730   27.1890    2.6870 N   0  0  0  0  0  0  0  0  0  0  0  0
    6.7760   28.0630    2.2290 C   0  0  0  0  0  0  0  0  0  0  0  0
    8.7190   26.5180    1.6770 C   0  0  0  0  0  0  0  0  0  0  0  0
    7.8710   25.3180    1.2280 C   0  0  0  0  0  0  0  0  0  0  0  0
    8.5430   24.1350    0.8100 N   0  0  0  0  0  0  0  0  0  0  0  0
    7.8450   23.1190    0.5040 O   0  0  0  0  0  0  0  0  0  0  0  0
    6.8870   25.5300    0.2820 O   0  0  0  0  0  0  0  0  0  0  0  0
    7.2480   29.3240    1.4730 C   0  0  0  0  0  0  0  0  0  0  0  0
    7.6240   30.4300    2.4390 C   0  0  0  0  0  0  0  0  0  0  0  0
    6.2040   29.8250    0.4700 C   0  0  0  0  0  0  0  0  0  0  0  0
  2  1  2  0
  6  1  1  0
  3  2  1  0
  4  3  2  0
  7  3  1  0
  5  4  1  0
  6  5  2  0
  9  6  1  0
  8  7  1  0
 10  9  2  0
 11  9  2  0
 12  9  1  0
 13 12  1  0
 14 12  1  0
 19 13  1  0
 15 14  1  0
 16 15  1  0
 18 15  2  0
 17 16  1  0
 20 19  1  0
 21 19  1  0
A    1
C1
A    2
C2
A    3
C3
A    4
C4
A    5
C5
A    6
C6
A    7
O1
A    8
C7
A    9
S1
A   10
O2
A   11
O3
A   12
N
A   13
C9
A   14
C10
A   15
C11
A   16
N1
A   17
O4
A   18
O5
A   19
C12
A   20
C13
A   21
C14
M  END
>  <Id>  (6) 
1RMZ_NGH_A_269

>  <ChainId>  (6) 
A

>  <AsymId>  (6) 
G

>  <SeqNum>  (6) 
269

>  <Name>  (6) 
N-ISOBUTYL-N-[4-METHOXYPHENYLSULFONYL]GLYCYL HYDROXAMIC ACID

>  <SystematicName>  (6) 
N-hydroxy-2-[(4-methoxyphenyl)sulfonyl-(2-methylpropyl)amino]ethanamide

>  <Synonyms>  (6) 


>  <Type>  (6) 
NON-POLYMER

>  <Formula>  (6) 
C13 H20 N2 O5 S

>  <ObservedFormula>  (6) 
C13 S N2 O5

>  <MolecularWeight>  (6) 
316.373

>  <ModifiedDate>  (6) 
2011-06-04

>  <Parent>  (6) 


>  <OneLetterCode>  (6) 


>  <SubcomponentList>  (6) 


>  <AmbiguousFlag>  (6) 
N

>  <InsertionCode>  (6) 


>  <InstanceId>  (6) 
1RMZ_NGH_A_269

>  <ChemCompId>  (6) 
NGH

>  <PdbId>  (6) 
1RMZ

>  <ResidueNumber>  (6) 
269

>  <InChI>  (6) 
InChI=1S/C13H20N2O5S/c1-10(2)8-15(9-13(16)14-17)21(18,19)12-6-4-11(20-3)5-7-12/h4-7,10,17H,8-9H2,1-3H3,(H,14,16)

>  <InChIKey>  (6) 
JIRXORZYIXSWOB-UHFFFAOYSA-N

>  <SMILES>  (6) 
CC(C)C[N@](CC(=O)NO)S(=O)(=O)c1ccc(cc1)OC

>  <MissingHeavyAtoms>  (6) 
0

>  <Model>  (6) 
1

>  <AltIds>  (6) 


>  <pKI>  (6) 
8.37

>  <ChemblID>  (6) 
CHEMBL311932

>  <standardized_canonical_smiles>  (6) 
COc1ccc(S(=O)(=O)N(CC(=O)NO)CC(C)C)cc1

$$$$
3N2U_D3X_A_0
     RDKit          3D

 31 32  0  0  0  0  0  0  0  0999 V2000
    2.5610   -2.6240    0.1610 C   0  0  0  0  0  0  0  0  0  0  0  0
    1.5680   -2.0230    5.5050 N   0  0  0  0  0  0  0  0  0  0  0  0
    3.2150   -2.6630    4.1170 O   0  0  0  0  0  0  0  0  0  0  0  0
    1.4800   -5.9750    4.8860 S   0  0  0  0  0  0  0  0  0  0  0  0
    2.1250   -1.1970    0.4310 C   0  0  0  0  0  0  0  0  0  0  0  0
    1.7050   -4.9750    3.7320 N   0  0  0  0  0  0  0  0  0  0  0  0
    0.2280   -5.6700    5.5190 O   0  0  0  0  0  0  0  0  0  0  0  0
    2.0390   -2.7320    4.4790 C   0  0  0  0  0  0  0  0  0  0  0  0
    1.4350   -7.3320    4.4160 O   0  0  0  0  0  0  0  0  0  0  0  0
    5.3840   -2.1200   -2.2030 C   0  0  0  0  0  0  0  0  0  0  0  0
    0.8080   -1.2680    0.9560 O   0  0  0  0  0  0  0  0  0  0  0  0
    3.9620   -1.9360   -1.6630 C   0  0  0  0  0  0  0  0  0  0  0  0
    1.8520    1.0020   -0.4860 O   0  0  0  0  0  0  0  0  0  0  0  0
    3.5150   -0.4750   -1.5560 C   0  0  0  0  0  0  0  0  0  0  0  0
    3.3970    0.0100   -2.8780 O   0  0  0  0  0  0  0  0  0  0  0  0
    2.1610   -0.3530   -0.8360 C   0  0  0  0  0  0  0  0  0  0  0  0
    5.4190   -5.6800    9.1320 O   0  0  0  0  0  0  0  0  0  0  0  0
    2.1350   -4.6670    1.3530 C   0  0  0  0  0  0  0  0  0  0  0  0
    3.8780   -2.6070   -0.3950 O   0  0  0  0  0  0  0  0  0  0  0  0
    2.5920   -5.3590    2.6350 C   0  0  0  0  0  0  0  0  0  0  0  0
    6.3250   -1.2940   -1.5030 O   0  0  0  0  0  0  0  0  0  0  0  0
    1.0680   -3.6540    3.7830 C   0  0  0  0  0  0  0  0  0  0  0  0
    2.5930   -3.3190    1.4060 O   0  0  0  0  0  0  0  0  0  0  0  0
    3.3640   -5.0060    8.1510 C   0  0  0  0  0  0  0  0  0  0  0  0
    2.4990   -1.2500    6.1770 O   0  0  0  0  0  0  0  0  0  0  0  0
    2.6220   -5.8950    6.0180 C   0  0  0  0  0  0  0  0  0  0  0  0
    3.7940   -6.6820    5.9530 C   0  0  0  0  0  0  0  0  0  0  0  0
    2.4190   -5.0590    7.1260 C   0  0  0  0  0  0  0  0  0  0  0  0
    4.7530   -6.6100    6.9770 C   0  0  0  0  0  0  0  0  0  0  0  0
    4.5320   -5.7710    8.0820 C   0  0  0  0  0  0  0  0  0  0  0  0
    6.4510   -6.6470    9.3830 C   0  0  0  0  0  0  0  0  0  0  0  0
  5  1  1  0
 19  1  1  0
 23  1  1  0
  8  2  1  0
 25  2  1  0
  8  3  2  0
  6  4  1  0
  7  4  2  0
  9  4  2  0
 26  4  1  0
 11  5  1  0
 16  5  1  0
 20  6  1  0
 22  6  1  0
 22  8  1  0
 12 10  1  0
 21 10  1  0
 14 12  1  0
 19 12  1  0
 16 13  1  0
 15 14  1  0
 16 14  1  0
 30 17  1  0
 31 17  1  0
 20 18  1  0
 23 18  1  0
 28 24  2  0
 30 24  1  0
 27 26  2  0
 28 26  1  0
 29 27  1  0
 30 29  2  0
A    1
C1
A    2
N1
A    3
O1
A    4
S1
A    5
C2
A    6
N2
A    7
O2
A    8
C3
A    9
O3
A   10
C4
A   11
O4
A   12
C5
A   13
O5
A   14
C6
A   15
O6
A   16
C7
A   17
O7
A   18
C8
A   19
O8
A   20
C9
A   21
O9
A   22
C10
A   23
O10
A   24
C11
A   25
O11
A   26
C12
A   27
C13
A   28
C14
A   29
C15
A   30
C16
A   31
C17
M  END
>  <Id>  (7) 
3N2U_D3X_A_0

>  <ChainId>  (7) 
A

>  <AsymId>  (7) 
G

>  <SeqNum>  (7) 
0

>  <Name>  (7) 
N-hydroxy-2-{[(4-methoxyphenyl)sulfonyl](2-{[(2R,3R,4S,5S,6R)-3,4,5-trihydroxy-6-(hydroxymethyl)tetrahydro-2H-pyran-2-yl]oxy}ethyl)amino}acetamide

>  <SystematicName>  (7) 
N-hydroxy-2-[(4-methoxyphenyl)sulfonyl-[2-[(2R,3R,4S,5S,6R)-3,4,5-trihydroxy-6-(hydroxymethyl)oxan-2-yl]oxyethyl]amino]ethanamide

>  <Synonyms>  (7) 


>  <Type>  (7) 
NON-POLYMER

>  <Formula>  (7) 
C17 H26 N2 O11 S

>  <ObservedFormula>  (7) 
C17 S N2 O11

>  <MolecularWeight>  (7) 
466.46

>  <ModifiedDate>  (7) 
2011-06-04

>  <Parent>  (7) 


>  <OneLetterCode>  (7) 


>  <SubcomponentList>  (7) 


>  <AmbiguousFlag>  (7) 
N

>  <InsertionCode>  (7) 


>  <InstanceId>  (7) 
3N2U_D3X_A_0

>  <ChemCompId>  (7) 
D3X

>  <PdbId>  (7) 
3N2U

>  <ResidueNumber>  (7) 
0

>  <InChI>  (7) 
InChI=1S/C17H26N2O11S/c1-28-10-2-4-11(5-3-10)31(26,27)19(8-13(21)18-25)6-7-29-17-16(24)15(23)14(22)12(9-20)30-17/h2-5,12,14-17,20,22-25H,6-9H2,1H3,(H,18,21)/t12-,14-,15+,16-,17-/m1/s1

>  <InChIKey>  (7) 
RBZQWZODGBMNHX-USACIQFYSA-N

>  <SMILES>  (7) 
COc1ccc(cc1)S(=O)(=O)N(CCO[C@H]2[C@@H]([C@H]([C@@H]([C@H](O2)CO)O)O)O)CC(=O)NO

>  <MissingHeavyAtoms>  (7) 
0

>  <Model>  (7) 
1

>  <AltIds>  (7) 


>  <pKI>  (7) 
7.84

>  <ChemblID>  (7) 
CHEMBL1232074

>  <standardized_canonical_smiles>  (7) 
COc1ccc(S(=O)(=O)N(CCO[C@@H]2O[C@H](CO)[C@@H](O)[C@H](O)[C@H]2O)CC(=O)NO)cc1

$$$$
3NX7_NHK_A_0
     RDKit          3D

 20 20  0  0  0  0  0  0  0  0999 V2000
   -0.2430   -5.7120   -5.3860 O   0  0  0  0  0  0  0  0  0  0  0  0
   -1.4900   -6.1600   -4.8000 S   0  0  0  0  0  0  0  0  0  0  0  0
   -1.4100   -7.5380   -4.3830 O   0  0  0  0  0  0  0  0  0  0  0  0
   -1.8370   -5.2410   -3.5980 N   0  0  0  0  0  0  0  0  0  0  0  0
   -1.2680   -3.8930   -3.4700 C   0  0  0  0  0  0  0  0  0  0  0  0
   -2.2030   -2.9050   -4.1410 C   0  0  0  0  0  0  0  0  0  0  0  0
   -3.3770   -2.8350   -3.8030 O   0  0  0  0  0  0  0  0  0  0  0  0
   -1.6850   -2.1590   -5.1280 N   0  0  0  0  0  0  0  0  0  0  0  0
   -2.4920   -1.2610   -5.8170 O   0  0  0  0  0  0  0  0  0  0  0  0
   -2.8340   -5.7010   -2.6370 C   0  0  0  0  0  0  0  0  0  0  0  0
   -2.4700   -5.2410   -1.2260 C   0  0  0  0  0  0  0  0  0  0  0  0
   -1.2690   -5.8930   -0.7980 O   0  0  0  0  0  0  0  0  0  0  0  0
   -2.6440   -6.0560   -5.9100 C   0  0  0  0  0  0  0  0  0  0  0  0
   -2.4930   -5.1620   -6.9740 C   0  0  0  0  0  0  0  0  0  0  0  0
   -3.4650   -5.0800   -7.9640 C   0  0  0  0  0  0  0  0  0  0  0  0
   -4.6030   -5.8860   -7.9030 C   0  0  0  0  0  0  0  0  0  0  0  0
   -4.7570   -6.7880   -6.8420 C   0  0  0  0  0  0  0  0  0  0  0  0
   -3.7760   -6.8890   -5.8520 C   0  0  0  0  0  0  0  0  0  0  0  0
   -5.5270   -5.7660   -8.9160 O   0  0  0  0  0  0  0  0  0  0  0  0
   -6.5950   -6.6760   -9.1820 C   0  0  0  0  0  0  0  0  0  0  0  0
  2  1  2  0
  3  2  2  0
  4  2  1  0
 13  2  1  0
  5  4  1  0
 10  4  1  0
  6  5  1  0
  7  6  2  0
  8  6  1  0
  9  8  1  0
 11 10  1  0
 12 11  1  0
 14 13  2  0
 18 13  1  0
 15 14  1  0
 16 15  2  0
 17 16  1  0
 19 16  1  0
 18 17  2  0
 20 19  1  0
A    1
O4
A    2
S1
A    3
O3
A    4
N2
A    5
C10
A    6
C9
A    7
O1
A    8
N1
A    9
O2
A   10
C8
A   11
C6
A   12
O6
A   13
C3
A   14
C5
A   15
C7
A   16
C4
A   17
C2
A   18
C1
A   19
O5
A   20
C11
M  END
>  <Id>  (8) 
3NX7_NHK_A_0

>  <ChainId>  (8) 
A

>  <AsymId>  (8) 
G

>  <SeqNum>  (8) 
0

>  <Name>  (8) 
N-hydroxy-N~2~-(2-hydroxyethyl)-N~2~-[(4-methoxyphenyl)sulfonyl]glycinamide

>  <SystematicName>  (8) 
N-hydroxy-2-[2-hydroxyethyl-(4-methoxyphenyl)sulfonyl-amino]ethanamide

>  <Synonyms>  (8) 


>  <Type>  (8) 
NON-POLYMER

>  <Formula>  (8) 
C11 H16 N2 O6 S

>  <ObservedFormula>  (8) 
S C11 N2 O6

>  <MolecularWeight>  (8) 
304.32

>  <ModifiedDate>  (8) 
2011-06-04

>  <Parent>  (8) 


>  <OneLetterCode>  (8) 


>  <SubcomponentList>  (8) 


>  <AmbiguousFlag>  (8) 
N

>  <InsertionCode>  (8) 


>  <InstanceId>  (8) 
3NX7_NHK_A_0

>  <ChemCompId>  (8) 
NHK

>  <PdbId>  (8) 
3NX7

>  <ResidueNumber>  (8) 
0

>  <InChI>  (8) 
InChI=1S/C11H16N2O6S/c1-19-9-2-4-10(5-3-9)20(17,18)13(6-7-14)8-11(15)12-16/h2-5,14,16H,6-8H2,1H3,(H,12,15)

>  <InChIKey>  (8) 
IVGHGMHNUBCTDC-UHFFFAOYSA-N

>  <SMILES>  (8) 
COc1ccc(cc1)S(=O)(=O)N(CCO)CC(=O)NO

>  <MissingHeavyAtoms>  (8) 
0

>  <Model>  (8) 
1

>  <AltIds>  (8) 


>  <pKI>  (8) 
8.12

>  <ChemblID>  (8) 
CHEMBL1234724

>  <standardized_canonical_smiles>  (8) 
COc1ccc(S(=O)(=O)N(CCO)CC(=O)NO)cc1

$$$$
3N2V_JT5_A_0
     RDKit          3D

 24 25  0  0  0  0  0  0  0  0999 V2000
    1.7480   -1.9720    4.1270 C   0  0  0  0  0  0  0  0  0  0  0  0
    0.5840   -2.6100    3.3570 C   0  0  0  0  0  0  0  0  0  0  0  0
    2.0910   -4.2340    2.2050 C   0  0  0  0  0  0  0  0  0  0  0  0
    1.3560   -1.3850    5.2190 N   0  0  0  0  0  0  0  0  0  0  0  0
    2.3080   -0.8300    5.9880 O   0  0  0  0  0  0  0  0  0  0  0  0
    2.9480   -1.9900    3.8440 O   0  0  0  0  0  0  0  0  0  0  0  0
    1.0200   -3.9710    3.2200 N   0  0  0  0  0  0  0  0  0  0  0  0
    0.7400   -5.1240    4.2050 S   0  0  0  0  0  0  0  0  0  0  0  0
    1.6090   -4.3010    0.7770 C   0  0  0  0  0  0  0  0  0  0  0  0
    0.8810   -3.1050    0.4510 O   0  0  0  0  0  0  0  0  0  0  0  0
    0.5690   -6.3930    3.4610 O   0  0  0  0  0  0  0  0  0  0  0  0
    2.0000   -5.3150    5.2240 C   0  0  0  0  0  0  0  0  0  0  0  0
   -0.4210   -4.9260    5.0770 O   0  0  0  0  0  0  0  0  0  0  0  0
    3.1090   -6.0710    4.8390 C   0  0  0  0  0  0  0  0  0  0  0  0
    4.1950   -6.3050    5.6550 C   0  0  0  0  0  0  0  0  0  0  0  0
    4.1370   -5.7880    6.9720 C   0  0  0  0  0  0  0  0  0  0  0  0
    3.0540   -4.9820    7.3670 C   0  0  0  0  0  0  0  0  0  0  0  0
    1.9840   -4.7290    6.5030 C   0  0  0  0  0  0  0  0  0  0  0  0
    5.2690   -6.0910    7.8960 C   0  0  0  0  0  0  0  0  0  0  0  0
    4.9760   -6.4030    9.2640 C   0  0  0  0  0  0  0  0  0  0  0  0
    6.0220   -6.6960   10.1740 C   0  0  0  0  0  0  0  0  0  0  0  0
    7.3620   -6.7730    9.7210 C   0  0  0  0  0  0  0  0  0  0  0  0
    7.6260   -6.5490    8.3480 C   0  0  0  0  0  0  0  0  0  0  0  0
    6.5860   -6.2270    7.4530 C   0  0  0  0  0  0  0  0  0  0  0  0
  2  1  1  0
  4  1  1  0
  6  1  2  0
  7  2  1  0
  7  3  1  0
  9  3  1  0
  5  4  1  0
  8  7  1  0
 11  8  2  0
 12  8  1  0
 13  8  2  0
 10  9  1  0
 14 12  2  0
 18 12  1  0
 15 14  1  0
 16 15  2  0
 17 16  1  0
 19 16  1  0
 18 17  2  0
 20 19  2  0
 24 19  1  0
 21 20  1  0
 22 21  2  0
 23 22  1  0
 24 23  2  0
A    1
C3
A    2
C4
A    3
C8
A    4
N2
A    5
O1
A    6
O5
A    7
N6
A    8
S7
A    9
C9
A   10
O10
A   11
O11
A   12
C12
A   13
O13
A   14
C14
A   15
C15
A   16
C16
A   17
C17
A   18
C18
A   19
C19
A   20
C20
A   21
C21
A   22
C22
A   23
C23
A   24
C24
M  END
>  <Id>  (9) 
3N2V_JT5_A_0

>  <ChainId>  (9) 
A

>  <AsymId>  (9) 
G

>  <SeqNum>  (9) 
0

>  <Name>  (9) 
N~2~-(biphenyl-4-ylsulfonyl)-N-hydroxy-N~2~-(2-hydroxyethyl)glycinamide

>  <SystematicName>  (9) 
N-hydroxy-2-[2-hydroxyethyl-(4-phenylphenyl)sulfonyl-amino]ethanamide

>  <Synonyms>  (9) 


>  <Type>  (9) 
NON-POLYMER

>  <Formula>  (9) 
C16 H18 N2 O5 S

>  <ObservedFormula>  (9) 
C16 S N2 O5

>  <MolecularWeight>  (9) 
350.39

>  <ModifiedDate>  (9) 
2011-06-04

>  <Parent>  (9) 


>  <OneLetterCode>  (9) 


>  <SubcomponentList>  (9) 


>  <AmbiguousFlag>  (9) 


>  <InsertionCode>  (9) 


>  <InstanceId>  (9) 
3N2V_JT5_A_0

>  <ChemCompId>  (9) 
JT5

>  <PdbId>  (9) 
3N2V

>  <ResidueNumber>  (9) 
0

>  <InChI>  (9) 
InChI=1S/C16H18N2O5S/c19-11-10-18(12-16(20)17-21)24(22,23)15-8-6-14(7-9-15)13-4-2-1-3-5-13/h1-9,19,21H,10-12H2,(H,17,20)

>  <InChIKey>  (9) 
QQDWEVONJRXVDB-UHFFFAOYSA-N

>  <SMILES>  (9) 
c1ccc(cc1)c2ccc(cc2)S(=O)(=O)N(CCO)CC(=O)NO

>  <MissingHeavyAtoms>  (9) 
0

>  <Model>  (9) 
1

>  <AltIds>  (9) 


>  <pKI>  (9) 
7.51

>  <ChemblID>  (9) 
CHEMBL1233772

>  <standardized_canonical_smiles>  (9) 
O=C(CN(CCO)S(=O)(=O)c1ccc(-c2ccccc2)cc1)NO

$$$$
4GR8_R4C_A_306
     RDKit          3D

 37 39  0  0  0  0  0  0  0  0999 V2000
   -8.0270   26.1270   -5.3260 O   0  0  0  0  0  0  0  0  0  0  0  0
   -4.4570   22.0830   -6.2640 N   0  0  0  0  0  0  0  0  0  0  0  0
   -5.5910   22.4700   -5.6850 O   0  0  0  0  0  0  0  0  0  0  0  0
   -6.9460   26.3680   -4.7480 C   0  0  0  0  0  0  0  0  0  0  0  0
   -6.4870   25.5080   -3.6090 C   0  0  0  0  0  0  0  0  0  0  0  0
   -6.5900   24.0520   -4.0210 C   0  0  0  0  0  0  0  0  0  0  0  0
   -4.0730   23.7770   -4.8240 C   0  0  0  0  0  0  0  0  0  0  0  0
   -3.5080   22.8990   -5.7700 C   0  0  0  0  0  0  0  0  0  0  0  0
   -2.0850   22.7460   -6.1620 C   0  0  0  0  0  0  0  0  0  0  0  0
   -1.0960   23.4670   -5.5150 C   0  0  0  0  0  0  0  0  0  0  0  0
    0.2330   23.2880   -5.8880 C   0  0  0  0  0  0  0  0  0  0  0  0
    0.5630   22.3930   -6.8960 C   0  0  0  0  0  0  0  0  0  0  0  0
   -0.4290   21.6570   -7.5410 C   0  0  0  0  0  0  0  0  0  0  0  0
   -1.7550   21.8340   -7.1590 C   0  0  0  0  0  0  0  0  0  0  0  0
   -5.4370   23.4870   -4.8030 C   0  0  0  0  0  0  0  0  0  0  0  0
   -7.5180   25.7840   -2.5360 C   0  0  0  0  0  0  0  0  0  0  0  0
   -7.2010   25.0340   -0.9150 P   0  0  0  0  0  0  0  0  0  0  0  0
   -5.7870   25.3240   -0.4330 O   0  0  0  0  0  0  0  0  0  0  0  0
   -7.5830   23.5750   -0.8720 O   0  0  0  0  0  0  0  0  0  0  0  0
   -8.2060   25.9570    0.1660 C   0  0  0  0  0  0  0  0  0  0  0  0
   -9.5840   25.9230    0.0160 C   0  0  0  0  0  0  0  0  0  0  0  0
  -10.3970   26.6540    0.8630 C   0  0  0  0  0  0  0  0  0  0  0  0
   -9.8030   27.4220    1.8560 C   0  0  0  0  0  0  0  0  0  0  0  0
  -10.8680   28.4170    3.0420 Br  0  0  0  0  0  0  0  0  0  0  0  0
   -8.4210   27.4610    2.0070 C   0  0  0  0  0  0  0  0  0  0  0  0
   -7.6130   26.7290    1.1520 C   0  0  0  0  0  0  0  0  0  0  0  0
   -6.1000   27.3340   -5.1060 N   0  0  0  0  0  0  0  0  0  0  0  0
   -6.4460   28.4190   -6.0170 C   0  0  0  0  0  0  0  0  0  0  0  0
   -6.0870   28.1360   -7.4650 C   0  0  0  0  0  0  0  0  0  0  0  0
   -5.0680   27.5120   -7.7480 O   0  0  0  0  0  0  0  0  0  0  0  0
   -5.7550   29.6960   -5.5740 C   0  0  0  0  0  0  0  0  0  0  0  0
   -6.9170   28.6430   -8.3740 N   0  0  0  0  0  0  0  0  0  0  0  0
   -6.6880   28.5160   -9.8110 C   0  0  0  0  0  0  0  0  0  0  0  0
   -5.4320   29.2530  -10.2700 C   0  0  0  0  0  0  0  0  0  0  0  0
   -4.8230   28.8830  -11.2740 O   0  0  0  0  0  0  0  0  0  0  0  0
   -7.9090   29.0040  -10.5860 C   0  0  0  0  0  0  0  0  0  0  0  0
   -5.0580   30.2980   -9.5380 N   0  0  0  0  0  0  0  0  0  0  0  0
  4  1  2  0
  3  2  1  0
  8  2  2  0
 15  3  1  0
  5  4  1  0
 27  4  1  0
  6  5  1  0
 16  5  1  0
 15  6  1  0
  8  7  1  0
 15  7  2  0
  9  8  1  0
 10  9  2  0
 14  9  1  0
 11 10  1  0
 12 11  2  0
 13 12  1  0
 14 13  2  0
 17 16  1  0
 18 17  1  0
 19 17  2  0
 20 17  1  0
 21 20  2  0
 26 20  1  0
 22 21  1  0
 23 22  2  0
 24 23  1  0
 25 23  1  0
 26 25  2  0
 28 27  1  0
 29 28  1  0
 31 28  1  0
 30 29  2  0
 32 29  1  0
 33 32  1  0
 34 33  1  0
 36 33  1  0
 35 34  2  0
 37 34  1  0
A    1
O4
A    2
N1
A    3
O1
A    4
C25
A    5
C17
A    6
C16
A    7
C14
A    8
C13
A    9
C12
A   10
C11
A   11
C10
A   12
C7
A   13
C8
A   14
C9
A   15
C15
A   16
C18
A   17
P1
A   18
O3
A   19
O2
A   20
C19
A   21
C20
A   22
C21
A   23
C22
A   24
BR1
A   25
C23
A   26
C24
A   27
N2
A   28
C26
A   29
C30
A   30
O7
A   31
C27
A   32
N3
A   33
C31
A   34
C35
A   35
O10
A   36
C32
A   37
N4
M  END
>  <Id>  (10) 
4GR8_R4C_A_306

>  <ChainId>  (10) 
A

>  <AsymId>  (10) 
G

>  <SeqNum>  (10) 
306

>  <Name>  (10) 
N-{(2S)-3-[(R)-(4-bromophenyl)(hydroxy)phosphoryl]-2-[(3-phenyl-1,2-oxazol-5-yl)methyl]propanoyl}-L-alanyl-L-alaninamide

>  <SystematicName>  (10) 
[(2S)-3-[[(2S)-1-[[(2S)-1-azanyl-1-oxidanylidene-propan-2-yl]amino]-1-oxidanylidene-propan-2-yl]amino]-3-oxidanylidene-2-[(3-phenyl-1,2-oxazol-5-yl)methyl]propyl]-(4-bromophenyl)phosphinic acid

>  <Synonyms>  (10) 
RXP470C

>  <Type>  (10) 
peptide-like

>  <Formula>  (10) 
C25 H28 Br N4 O6 P

>  <ObservedFormula>  (10) 
P Br C25 N4 O6

>  <MolecularWeight>  (10) 
591.391

>  <ModifiedDate>  (10) 
2013-02-01

>  <Parent>  (10) 


>  <OneLetterCode>  (10) 


>  <SubcomponentList>  (10) 
14E ALA ALA NH2

>  <AmbiguousFlag>  (10) 
N

>  <InsertionCode>  (10) 


>  <InstanceId>  (10) 
4GR8_R4C_A_306

>  <ChemCompId>  (10) 
R4C

>  <PdbId>  (10) 
4GR8

>  <ResidueNumber>  (10) 
306

>  <InChI>  (10) 
InChI=1S/C25H28BrN4O6P/c1-15(23(27)31)28-24(32)16(2)29-25(33)18(14-37(34,35)21-10-8-19(26)9-11-21)12-20-13-22(30-36-20)17-6-4-3-5-7-17/h3-11,13,15-16,18H,12,14H2,1-2H3,(H2,27,31)(H,28,32)(H,29,33)(H,34,35)/t15-,16-,18+/m0/s1

>  <InChIKey>  (10) 
HXHLWPVBBLIGJV-XYJFISCASA-N

>  <SMILES>  (10) 
C[C@@H](C(=O)N)NC(=O)[C@H](C)NC(=O)[C@H](Cc1cc(no1)c2ccccc2)CP(=O)(c3ccc(cc3)Br)O

>  <MissingHeavyAtoms>  (10) 
0

>  <Model>  (10) 
1

>  <AltIds>  (10) 


>  <pKI>  (10) 
7.83

>  <ChemblID>  (10) 
CHEMBL2316258

>  <standardized_canonical_smiles>  (10) 
C[C@H](NC(=O)[C@H](C)NC(=O)[C@H](Cc1cc(-c2ccccc2)no1)CP(=O)(O)c1ccc(Br)cc1)C(N)=O

$$$$
4GR0_R4B_A_306
     RDKit          3D

 44 47  0  0  0  0  0  0  0  0999 V2000
   -9.6010   26.0450   -4.7330 O   0  0  0  0  0  0  0  0  0  0  0  0
   -6.1200   22.2700   -5.8680 N   0  0  0  0  0  0  0  0  0  0  0  0
   -7.2270   22.5580   -5.1980 O   0  0  0  0  0  0  0  0  0  0  0  0
   -8.6420   26.3650   -4.0050 C   0  0  0  0  0  0  0  0  0  0  0  0
   -8.1980   25.4570   -2.9020 C   0  0  0  0  0  0  0  0  0  0  0  0
   -8.2510   24.0430   -3.4520 C   0  0  0  0  0  0  0  0  0  0  0  0
   -5.7580   23.9730   -4.4250 C   0  0  0  0  0  0  0  0  0  0  0  0
   -5.1900   23.1350   -5.4020 C   0  0  0  0  0  0  0  0  0  0  0  0
   -3.7880   23.1050   -5.8850 C   0  0  0  0  0  0  0  0  0  0  0  0
   -3.4430   22.2520   -6.9280 C   0  0  0  0  0  0  0  0  0  0  0  0
   -2.1190   22.2030   -7.3680 C   0  0  0  0  0  0  0  0  0  0  0  0
   -1.1650   23.0020   -6.7430 C   0  0  0  0  0  0  0  0  0  0  0  0
   -1.5210   23.8260   -5.6810 C   0  0  0  0  0  0  0  0  0  0  0  0
   -2.8330   23.8780   -5.2410 C   0  0  0  0  0  0  0  0  0  0  0  0
   -7.0930   23.5790   -4.3140 C   0  0  0  0  0  0  0  0  0  0  0  0
    3.1990   20.4700   -8.3220 Cl  0  0  0  0  0  0  0  0  0  0  0  0
    2.3140   21.9380   -7.8040 C   0  0  0  0  0  0  0  0  0  0  0  0
    0.9530   21.8600   -7.5000 C   0  0  0  0  0  0  0  0  0  0  0  0
    2.9980   23.1440   -7.7060 C   0  0  0  0  0  0  0  0  0  0  0  0
    2.3280   24.2900   -7.3030 C   0  0  0  0  0  0  0  0  0  0  0  0
    0.9740   24.2160   -7.0030 C   0  0  0  0  0  0  0  0  0  0  0  0
    0.2800   23.0120   -7.1180 C   0  0  0  0  0  0  0  0  0  0  0  0
   -9.2530   25.5590   -1.8010 C   0  0  0  0  0  0  0  0  0  0  0  0
   -8.7640   24.8480   -0.2020 P   0  0  0  0  0  0  0  0  0  0  0  0
   -7.3260   25.2370    0.0620 O   0  0  0  0  0  0  0  0  0  0  0  0
   -9.0670   23.3730   -0.1970 O   0  0  0  0  0  0  0  0  0  0  0  0
   -9.7780   25.5930    1.0060 C   0  0  0  0  0  0  0  0  0  0  0  0
   -9.2110   25.9490    2.2180 C   0  0  0  0  0  0  0  0  0  0  0  0
  -10.0000   26.5340    3.2030 C   0  0  0  0  0  0  0  0  0  0  0  0
  -11.3470   26.7440    2.9640 C   0  0  0  0  0  0  0  0  0  0  0  0
  -12.3740   27.5440    4.3510 Br  0  0  0  0  0  0  0  0  0  0  0  0
  -11.9210   26.3720    1.7500 C   0  0  0  0  0  0  0  0  0  0  0  0
  -11.1340   25.7940    0.7560 C   0  0  0  0  0  0  0  0  0  0  0  0
   -7.9810   27.5010   -4.1610 N   0  0  0  0  0  0  0  0  0  0  0  0
   -8.4690   28.5010   -5.1060 C   0  0  0  0  0  0  0  0  0  0  0  0
   -7.7640   28.4380   -6.4610 C   0  0  0  0  0  0  0  0  0  0  0  0
   -6.6020   28.0250   -6.5580 O   0  0  0  0  0  0  0  0  0  0  0  0
   -8.3560   29.8920   -4.5070 C   0  0  0  0  0  0  0  0  0  0  0  0
   -8.4740   28.8340   -7.5120 N   0  0  0  0  0  0  0  0  0  0  0  0
   -7.8460   28.9790   -8.8150 C   0  0  0  0  0  0  0  0  0  0  0  0
   -6.7690   30.0600   -8.7190 C   0  0  0  0  0  0  0  0  0  0  0  0
   -5.6020   29.8270   -9.0490 O   0  0  0  0  0  0  0  0  0  0  0  0
   -8.8850   29.3380   -9.8750 C   0  0  0  0  0  0  0  0  0  0  0  0
   -7.1650   31.2380   -8.2450 N   0  0  0  0  0  0  0  0  0  0  0  0
  4  1  2  0
  3  2  1  0
  8  2  2  0
 15  3  1  0
  5  4  1  0
 34  4  1  0
  6  5  1  0
 23  5  1  0
 15  6  1  0
  8  7  1  0
 15  7  2  0
  9  8  1  0
 10  9  2  0
 14  9  1  0
 11 10  1  0
 12 11  2  0
 13 12  1  0
 22 12  1  0
 14 13  2  0
 17 16  1  0
 18 17  2  0
 19 17  1  0
 22 18  1  0
 20 19  2  0
 21 20  1  0
 22 21  2  0
 24 23  1  0
 25 24  1  0
 26 24  2  0
 27 24  1  0
 28 27  2  0
 33 27  1  0
 29 28  1  0
 30 29  2  0
 31 30  1  0
 32 30  1  0
 33 32  2  0
 35 34  1  0
 36 35  1  0
 38 35  1  0
 37 36  2  0
 39 36  1  0
 40 39  1  0
 41 40  1  0
 43 40  1  0
 42 41  2  0
 44 41  1  0
A    1
O4
A    2
N1
A    3
O1
A    4
C25
A    5
C17
A    6
C16
A    7
C14
A    8
C13
A    9
C12
A   10
C11
A   11
C10
A   12
C7
A   13
C8
A   14
C9
A   15
C15
A   16
CL1
A   17
C1
A   18
C2
A   19
C3
A   20
C4
A   21
C5
A   22
C6
A   23
C18
A   24
P1
A   25
O2
A   26
O3
A   27
C19
A   28
C20
A   29
C21
A   30
C22
A   31
BR1
A   32
C23
A   33
C24
A   34
N2
A   35
C26
A   36
C30
A   37
O7
A   38
C27
A   39
N3
A   40
C31
A   41
C35
A   42
O10
A   43
C32
A   44
N4
M  END
>  <Id>  (11) 
4GR0_R4B_A_306

>  <ChainId>  (11) 
A

>  <AsymId>  (11) 
G

>  <SeqNum>  (11) 
306

>  <Name>  (11) 
N-[(2S)-3-[(R)-(4-bromophenyl)(hydroxy)phosphoryl]-2-{[3-(3'-chlorobiphenyl-4-yl)-1,2-oxazol-5-yl]methyl}propanoyl]-L-alanyl-L-alaninamide

>  <SystematicName>  (11) 
[(2S)-3-[[(2S)-1-[[(2S)-1-azanyl-1-oxidanylidene-propan-2-yl]amino]-1-oxidanylidene-propan-2-yl]amino]-2-[[3-[4-(3-chlorophenyl)phenyl]-1,2-oxazol-5-yl]methyl]-3-oxidanylidene-propyl]-(4-bromophenyl)phosphinic acid

>  <Synonyms>  (11) 
RXP470B

>  <Type>  (11) 
peptide-like

>  <Formula>  (11) 
C31 H31 Br Cl N4 O6 P

>  <ObservedFormula>  (11) 
P Br C31 Cl N4 O6

>  <MolecularWeight>  (11) 
701.932

>  <ModifiedDate>  (11) 
2013-02-01

>  <Parent>  (11) 


>  <OneLetterCode>  (11) 


>  <SubcomponentList>  (11) 
0YL ALA ALA NH2

>  <AmbiguousFlag>  (11) 
N

>  <InsertionCode>  (11) 


>  <InstanceId>  (11) 
4GR0_R4B_A_306

>  <ChemCompId>  (11) 
R4B

>  <PdbId>  (11) 
4GR0

>  <ResidueNumber>  (11) 
306

>  <InChI>  (11) 
InChI=1S/C31H31BrClN4O6P/c1-18(29(34)38)35-30(39)19(2)36-31(40)23(17-44(41,42)27-12-10-24(32)11-13-27)15-26-16-28(37-43-26)21-8-6-20(7-9-21)22-4-3-5-25(33)14-22/h3-14,16,18-19,23H,15,17H2,1-2H3,(H2,34,38)(H,35,39)(H,36,40)(H,41,42)/t18-,19-,23+/m0/s1

>  <InChIKey>  (11) 
LIUMDGLYGBIKBM-SFYKDHMMSA-N

>  <SMILES>  (11) 
C[C@@H](C(=O)N)NC(=O)[C@H](C)NC(=O)[C@H](Cc1cc(no1)c2ccc(cc2)c3cccc(c3)Cl)CP(=O)(c4ccc(cc4)Br)O

>  <MissingHeavyAtoms>  (11) 
0

>  <Model>  (11) 
1

>  <AltIds>  (11) 


>  <pKI>  (11) 
9.55

>  <ChemblID>  (11) 
CHEMBL2316257

>  <standardized_canonical_smiles>  (11) 
C[C@H](NC(=O)[C@H](C)NC(=O)[C@H](Cc1cc(-c2ccc(-c3cccc(Cl)c3)cc2)no1)CP(=O)(O)c1ccc(Br)cc1)C(N)=O

$$$$
4GR3_R45_A_306
     RDKit          3D

 45 47  0  0  0  0  0  0  0  0999 V2000
    9.7030   26.3050    4.6990 O   0  0  0  0  0  0  0  0  0  0  0  0
    6.3090   22.4290    5.7260 N   0  0  0  0  0  0  0  0  0  0  0  0
    7.4530   22.7090    5.1200 O   0  0  0  0  0  0  0  0  0  0  0  0
    8.8210   26.5950    3.8510 C   0  0  0  0  0  0  0  0  0  0  0  0
    8.4300   25.6130    2.7890 C   0  0  0  0  0  0  0  0  0  0  0  0
    8.5310   24.2150    3.3760 C   0  0  0  0  0  0  0  0  0  0  0  0
    6.0270   24.1220    4.2670 C   0  0  0  0  0  0  0  0  0  0  0  0
    5.4020   23.3020    5.2260 C   0  0  0  0  0  0  0  0  0  0  0  0
    3.9750   23.2550    5.6560 C   0  0  0  0  0  0  0  0  0  0  0  0
    2.9750   23.9760    5.0150 C   0  0  0  0  0  0  0  0  0  0  0  0
    1.6490   23.8750    5.4480 C   0  0  0  0  0  0  0  0  0  0  0  0
    1.3220   23.0290    6.5080 C   0  0  0  0  0  0  0  0  0  0  0  0
    2.3230   22.2950    7.1370 C   0  0  0  0  0  0  0  0  0  0  0  0
    3.6430   22.3990    6.7020 C   0  0  0  0  0  0  0  0  0  0  0  0
    7.3640   23.7230    4.2110 C   0  0  0  0  0  0  0  0  0  0  0  0
    9.4750   25.7820    1.6790 C   0  0  0  0  0  0  0  0  0  0  0  0
    9.1250   24.9510    0.1040 P   0  0  0  0  0  0  0  0  0  0  0  0
    9.4710   23.4720    0.1530 O   0  0  0  0  0  0  0  0  0  0  0  0
    7.7220   25.2760   -0.3540 O   0  0  0  0  0  0  0  0  0  0  0  0
   10.1890   25.6630   -1.0960 C   0  0  0  0  0  0  0  0  0  0  0  0
    9.6850   26.1500   -2.3010 C   0  0  0  0  0  0  0  0  0  0  0  0
   10.5550   26.7050   -3.2410 C   0  0  0  0  0  0  0  0  0  0  0  0
   11.9240   26.7560   -2.9870 C   0  0  0  0  0  0  0  0  0  0  0  0
   13.1200   27.5090   -4.2600 Br  0  0  0  0  0  0  0  0  0  0  0  0
   12.4260   26.2610   -1.7860 C   0  0  0  0  0  0  0  0  0  0  0  0
   11.5530   25.7160   -0.8490 C   0  0  0  0  0  0  0  0  0  0  0  0
    8.1910   27.7610    3.8330 N   0  0  0  0  0  0  0  0  0  0  0  0
    8.6000   28.8420    4.7180 C   0  0  0  0  0  0  0  0  0  0  0  0
    7.8140   28.8760    6.0230 C   0  0  0  0  0  0  0  0  0  0  0  0
    6.6560   28.4640    6.0900 O   0  0  0  0  0  0  0  0  0  0  0  0
    8.5050   30.1880    3.9900 C   0  0  0  0  0  0  0  0  0  0  0  0
    9.4130   30.2920    2.7720 C   0  0  0  0  0  0  0  0  0  0  0  0
    9.3730   31.6630    2.1320 C   0  0  0  0  0  0  0  0  0  0  0  0
    8.6490   31.8310    1.1280 O   0  0  0  0  0  0  0  0  0  0  0  0
   10.0700   32.5700    2.6320 O   0  0  0  0  0  0  0  0  0  0  0  0
    8.4610   29.3690    7.0710 N   0  0  0  0  0  0  0  0  0  0  0  0
    7.7900   29.5890    8.3360 C   0  0  0  0  0  0  0  0  0  0  0  0
    6.6770   30.6270    8.1600 C   0  0  0  0  0  0  0  0  0  0  0  0
    5.5210   30.3800    8.5170 O   0  0  0  0  0  0  0  0  0  0  0  0
    8.8050   30.0620    9.3670 C   0  0  0  0  0  0  0  0  0  0  0  0
    8.2900   30.1150   10.7830 C   0  0  0  0  0  0  0  0  0  0  0  0
    9.4240   30.0860   11.7770 C   0  0  0  0  0  0  0  0  0  0  0  0
   10.1280   31.1130   11.9030 O   0  0  0  0  0  0  0  0  0  0  0  0
    9.6300   29.0260   12.4060 O   0  0  0  0  0  0  0  0  0  0  0  0
    7.0260   31.7790    7.5960 N   0  0  0  0  0  0  0  0  0  0  0  0
  4  1  2  0
  3  2  1  0
  8  2  2  0
 15  3  1  0
  5  4  1  0
 27  4  1  0
  6  5  1  0
 16  5  1  0
 15  6  1  0
  8  7  1  0
 15  7  2  0
  9  8  1  0
 10  9  2  0
 14  9  1  0
 11 10  1  0
 12 11  2  0
 13 12  1  0
 14 13  2  0
 17 16  1  0
 18 17  1  0
 19 17  2  0
 20 17  1  0
 21 20  2  0
 26 20  1  0
 22 21  1  0
 23 22  2  0
 24 23  1  0
 25 23  1  0
 26 25  2  0
 28 27  1  0
 29 28  1  0
 31 28  1  0
 30 29  2  0
 36 29  1  0
 32 31  1  0
 33 32  1  0
 34 33  2  0
 35 33  1  0
 37 36  1  0
 38 37  1  0
 40 37  1  0
 39 38  2  0
 45 38  1  0
 41 40  1  0
 42 41  1  0
 43 42  2  0
 44 42  1  0
A    1
O4
A    2
N1
A    3
O1
A    4
C25
A    5
C17
A    6
C16
A    7
C14
A    8
C13
A    9
C12
A   10
C11
A   11
C10
A   12
C7
A   13
C8
A   14
C9
A   15
C15
A   16
C18
A   17
P1
A   18
O2
A   19
O3
A   20
C19
A   21
C20
A   22
C21
A   23
C22
A   24
BR1
A   25
C23
A   26
C24
A   27
N2
A   28
C26
A   29
C30
A   30
O7
A   31
C27
A   32
C28
A   33
C29
A   34
O6
A   35
O5
A   36
N3
A   37
C31
A   38
C35
A   39
O10
A   40
C32
A   41
C33
A   42
C34
A   43
O8
A   44
O9
A   45
N4
M  END
>  <Id>  (12) 
4GR3_R45_A_306

>  <ChainId>  (12) 
A

>  <AsymId>  (12) 
G

>  <SeqNum>  (12) 
306

>  <Name>  (12) 
N-{(2S)-3-[(S)-(4-bromophenyl)(hydroxy)phosphoryl]-2-[(3-phenyl-1,2-oxazol-5-yl)methyl]propanoyl}-L-alpha-glutamyl-L-alpha-glutamine

>  <SystematicName>  (12) 
(4S)-5-azanyl-4-[[(2S)-2-[[(2S)-2-[[(4-bromophenyl)-oxidanyl-phosphoryl]methyl]-3-(3-phenyl-1,2-oxazol-5-yl)propanoyl]amino]-5-oxidanyl-5-oxidanylidene-pentanoyl]amino]-5-oxidanylidene-pentanoic acid

>  <Synonyms>  (12) 
RXP470A

>  <Type>  (12) 
peptide-like

>  <Formula>  (12) 
C29 H32 Br N4 O10 P

>  <ObservedFormula>  (12) 
P Br C29 N4 O10

>  <MolecularWeight>  (12) 
707.463

>  <ModifiedDate>  (12) 
2013-02-01

>  <Parent>  (12) 


>  <OneLetterCode>  (12) 


>  <SubcomponentList>  (12) 
14E GLU GLU NH2

>  <AmbiguousFlag>  (12) 
N

>  <InsertionCode>  (12) 


>  <InstanceId>  (12) 
4GR3_R45_A_306

>  <ChemCompId>  (12) 
R45

>  <PdbId>  (12) 
4GR3

>  <ResidueNumber>  (12) 
306

>  <InChI>  (12) 
InChI=1S/C29H32BrN4O10P/c30-19-6-8-21(9-7-19)45(42,43)16-18(14-20-15-24(34-44-20)17-4-2-1-3-5-17)28(40)33-23(11-13-26(37)38)29(41)32-22(27(31)39)10-12-25(35)36/h1-9,15,18,22-23H,10-14,16H2,(H2,31,39)(H,32,41)(H,33,40)(H,35,36)(H,37,38)(H,42,43)/t18-,22+,23+/m1/s1

>  <InChIKey>  (12) 
RXBMEHOLQJITJI-LEOXJPRUSA-N

>  <SMILES>  (12) 
c1ccc(cc1)c2cc(on2)C[C@H](CP(=O)(c3ccc(cc3)Br)O)C(=O)N[C@@H](CCC(=O)O)C(=O)N[C@@H](CCC(=O)O)C(=O)N

>  <MissingHeavyAtoms>  (12) 
0

>  <Model>  (12) 
1

>  <AltIds>  (12) 


>  <pKI>  (12) 
7.81

>  <ChemblID>  (12) 
CHEMBL2316256

>  <standardized_canonical_smiles>  (12) 
NC(=O)[C@H](CCC(=O)O)NC(=O)[C@H](CCC(=O)O)NC(=O)[C@H](Cc1cc(-c2ccccc2)no1)CP(=O)(O)c1ccc(Br)cc1

$$$$
3F17_HS4_A_0
     RDKit          3D

 21 22  0  0  0  0  0  0  0  0999 V2000
   -0.2930   -5.3680    5.1730 O   0  0  0  0  0  0  0  0  0  0  0  0
    0.7070   -5.9110    4.2810 S   0  0  0  0  0  0  0  0  0  0  0  0
    0.4190   -7.0990    3.6070 O   0  0  0  0  0  0  0  0  0  0  0  0
    0.7600   -4.7210    3.2140 N   0  0  0  0  0  0  0  0  0  0  0  0
    0.5100   -3.3290    3.4630 C   0  0  0  0  0  0  0  0  0  0  0  0
    1.6640   -2.6940    4.1890 C   0  0  0  0  0  0  0  0  0  0  0  0
    2.8140   -2.6850    3.7560 O   0  0  0  0  0  0  0  0  0  0  0  0
    1.3410   -2.1240    5.3270 N   0  0  0  0  0  0  0  0  0  0  0  0
    2.3260   -1.4820    6.0380 O   0  0  0  0  0  0  0  0  0  0  0  0
    1.8640   -6.0310    5.3800 C   0  0  0  0  0  0  0  0  0  0  0  0
    2.9560   -6.8100    4.9840 C   0  0  0  0  0  0  0  0  0  0  0  0
    4.0380   -7.0280    5.8320 C   0  0  0  0  0  0  0  0  0  0  0  0
    1.8870   -5.4460    6.6500 C   0  0  0  0  0  0  0  0  0  0  0  0
    2.9740   -5.6630    7.5010 C   0  0  0  0  0  0  0  0  0  0  0  0
    4.0660   -6.4360    7.0930 C   0  0  0  0  0  0  0  0  0  0  0  0
    5.2040   -6.7240    8.0100 C   0  0  0  0  0  0  0  0  0  0  0  0
    6.5320   -6.7750    7.6000 C   0  0  0  0  0  0  0  0  0  0  0  0
    7.5390   -7.0950    8.5130 C   0  0  0  0  0  0  0  0  0  0  0  0
    7.2220   -7.3960    9.8310 C   0  0  0  0  0  0  0  0  0  0  0  0
    5.8940   -7.3770   10.2380 C   0  0  0  0  0  0  0  0  0  0  0  0
    4.8940   -7.0580    9.3310 C   0  0  0  0  0  0  0  0  0  0  0  0
  2  1  2  0
  3  2  2  0
  4  2  1  0
 10  2  1  0
  5  4  1  0
  6  5  1  0
  7  6  2  0
  8  6  1  0
  9  8  1  0
 11 10  2  0
 13 10  1  0
 12 11  1  0
 15 12  2  0
 14 13  2  0
 15 14  1  0
 16 15  1  0
 17 16  2  0
 21 16  1  0
 18 17  1  0
 19 18  2  0
 20 19  1  0
 21 20  2  0
A    1
O4
A    2
S1
A    3
O3
A    4
N1
A    5
C12
A    6
C14
A    7
O1
A    8
N2
A    9
O2
A   10
C13
A   11
C10
A   12
C5
A   13
C11
A   14
C8
A   15
C2
A   16
C1
A   17
C4
A   18
C7
A   19
C9
A   20
C6
A   21
C3
M  END
>  <Id>  (13) 
3F17_HS4_A_0

>  <ChainId>  (13) 
A

>  <AsymId>  (13) 
G

>  <SeqNum>  (13) 
0

>  <Name>  (13) 
N-oxidanyl-2-[(4-phenylphenyl)sulfonylamino]ethanamide

>  <SystematicName>  (13) 
~{N}-oxidanyl-2-[(4-phenylphenyl)sulfonylamino]ethanamide

>  <Synonyms>  (13) 


>  <Type>  (13) 
NON-POLYMER

>  <Formula>  (13) 
C14 H14 N2 O4 S

>  <ObservedFormula>  (13) 
S C14 N2 O4

>  <MolecularWeight>  (13) 
306.337

>  <ModifiedDate>  (13) 
2020-01-07

>  <Parent>  (13) 


>  <OneLetterCode>  (13) 


>  <SubcomponentList>  (13) 


>  <AmbiguousFlag>  (13) 
N

>  <InsertionCode>  (13) 


>  <InstanceId>  (13) 
3F17_HS4_A_0

>  <ChemCompId>  (13) 
HS4

>  <PdbId>  (13) 
3F17

>  <ResidueNumber>  (13) 
0

>  <InChI>  (13) 
InChI=1S/C14H14N2O4S/c17-14(16-18)10-15-21(19,20)13-8-6-12(7-9-13)11-4-2-1-3-5-11/h1-9,15,18H,10H2,(H,16,17)

>  <InChIKey>  (13) 
NKGRTRASISLCCZ-UHFFFAOYSA-N

>  <SMILES>  (13) 
c1ccc(cc1)c2ccc(cc2)S(=O)(=O)NCC(=O)NO

>  <MissingHeavyAtoms>  (13) 
0

>  <Model>  (13) 
1

>  <AltIds>  (13) 


>  <pKI>  (13) 
8.7

>  <ChemblID>  (13) 
CHEMBL550148

>  <standardized_canonical_smiles>  (13) 
O=C(CNS(=O)(=O)c1ccc(-c2ccccc2)cc1)NO

$$$$
4GUY_KLJ_A_306
     RDKit          3D

 19 19  0  0  0  0  0  0  0  0999 V2000
    2.8880   -5.6060    6.6180 C   0  0  0  0  0  0  0  0  0  0  0  0
    1.3340   -4.7330    3.5610 N   0  0  0  0  0  0  0  0  0  0  0  0
    7.7360   -7.1950    9.1460 O   0  0  0  0  0  0  0  0  0  0  0  0
    1.2100   -5.8740    4.6900 S   0  0  0  0  0  0  0  0  0  0  0  0
    4.1800   -6.0340    7.2380 C   0  0  0  0  0  0  0  0  0  0  0  0
    1.2140   -1.6560    5.3090 N   0  0  0  0  0  0  0  0  0  0  0  0
    2.7870   -2.3520    3.8400 O   0  0  0  0  0  0  0  0  0  0  0  0
    4.1560   -6.4220    8.5670 C   0  0  0  0  0  0  0  0  0  0  0  0
    0.2630   -5.3130    5.6130 O   0  0  0  0  0  0  0  0  0  0  0  0
    5.3540   -6.8220    9.1910 C   0  0  0  0  0  0  0  0  0  0  0  0
    2.1280   -1.1000    6.2090 O   0  0  0  0  0  0  0  0  0  0  0  0
    6.5760   -6.8020    8.4760 C   0  0  0  0  0  0  0  0  0  0  0  0
    0.6820   -7.0950    4.1390 O   0  0  0  0  0  0  0  0  0  0  0  0
    5.3870   -5.9960    6.5110 C   0  0  0  0  0  0  0  0  0  0  0  0
    6.5900   -6.3880    7.1240 C   0  0  0  0  0  0  0  0  0  0  0  0
    2.6960   -6.2750    5.2700 C   0  0  0  0  0  0  0  0  0  0  0  0
    8.9750   -7.3960    8.4680 C   0  0  0  0  0  0  0  0  0  0  0  0
    1.6490   -2.4230    4.3020 C   0  0  0  0  0  0  0  0  0  0  0  0
    0.6730   -3.4480    3.7220 C   0  0  0  0  0  0  0  0  0  0  0  0
  5  1  1  0
 16  1  1  0
  4  2  1  0
 19  2  1  0
 12  3  1  0
 17  3  1  0
  9  4  2  0
 13  4  2  0
 16  4  1  0
  8  5  2  0
 14  5  1  0
 11  6  1  0
 18  6  1  0
 18  7  2  0
 10  8  1  0
 12 10  2  0
 15 12  1  0
 15 14  2  0
 19 18  1  0
A    1
C1
A    2
N1
A    3
O1
A    4
S1
A    5
C2
A    6
N2
A    7
O2
A    8
C3
A    9
O3
A   10
C4
A   11
O4
A   12
C5
A   13
O5
A   14
C6
A   15
C7
A   16
C8
A   17
C9
A   18
C10
A   19
C11
M  END
>  <Id>  (14) 
4GUY_KLJ_A_306

>  <ChainId>  (14) 
A

>  <AsymId>  (14) 
G

>  <SeqNum>  (14) 
306

>  <Name>  (14) 
N-hydroxy-N~2~-{[2-(4-methoxyphenyl)ethyl]sulfonyl}glycinamide

>  <SystematicName>  (14) 
2-[2-(4-methoxyphenyl)ethylsulfonylamino]-N-oxidanyl-ethanamide

>  <Synonyms>  (14) 


>  <Type>  (14) 
NON-POLYMER

>  <Formula>  (14) 
C11 H16 N2 O5 S

>  <ObservedFormula>  (14) 
C11 S N2 O5

>  <MolecularWeight>  (14) 
288.32

>  <ModifiedDate>  (14) 
2012-06-29

>  <Parent>  (14) 


>  <OneLetterCode>  (14) 


>  <SubcomponentList>  (14) 


>  <AmbiguousFlag>  (14) 
N

>  <InsertionCode>  (14) 


>  <InstanceId>  (14) 
4GUY_KLJ_A_306

>  <ChemCompId>  (14) 
KLJ

>  <PdbId>  (14) 
4GUY

>  <ResidueNumber>  (14) 
306

>  <InChI>  (14) 
InChI=1S/C11H16N2O5S/c1-18-10-4-2-9(3-5-10)6-7-19(16,17)12-8-11(14)13-15/h2-5,12,15H,6-8H2,1H3,(H,13,14)

>  <InChIKey>  (14) 
LMKSZZKXCRCXFM-UHFFFAOYSA-N

>  <SMILES>  (14) 
COc1ccc(cc1)CCS(=O)(=O)NCC(=O)NO

>  <MissingHeavyAtoms>  (14) 
0

>  <Model>  (14) 
1

>  <AltIds>  (14) 


>  <pKI>  (14) 
8.0

>  <ChemblID>  (14) 
CHEMBL2385482

>  <standardized_canonical_smiles>  (14) 
COc1ccc(CCS(=O)(=O)NCC(=O)NO)cc1

$$$$
3LK8_Z79_A_0
     RDKit          3D

 17 17  0  0  0  0  0  0  0  0999 V2000
    3.2440   -3.0610    4.0450 O   0  0  0  0  0  0  0  0  0  0  0  0
    2.0610   -3.1300    4.3500 C   0  0  0  0  0  0  0  0  0  0  0  0
    1.5060   -2.3710    5.3080 N   0  0  0  0  0  0  0  0  0  0  0  0
    2.3060   -1.5120    6.0440 O   0  0  0  0  0  0  0  0  0  0  0  0
    1.1460   -4.1060    3.6320 C   0  0  0  0  0  0  0  0  0  0  0  0
    1.6810   -5.4480    3.6950 N   0  0  0  0  0  0  0  0  0  0  0  0
    1.4570   -6.3220    5.0030 S   0  0  0  0  0  0  0  0  0  0  0  0
    0.1810   -5.9000    5.5650 O   0  0  0  0  0  0  0  0  0  0  0  0
    1.3840   -7.7240    4.6820 O   0  0  0  0  0  0  0  0  0  0  0  0
    2.5680   -6.1780    6.1610 C   0  0  0  0  0  0  0  0  0  0  0  0
    2.3120   -5.3360    7.2560 C   0  0  0  0  0  0  0  0  0  0  0  0
    3.2220   -5.2360    8.3110 C   0  0  0  0  0  0  0  0  0  0  0  0
    4.3940   -5.9730    8.2850 C   0  0  0  0  0  0  0  0  0  0  0  0
    5.2670   -5.8580    9.3380 O   0  0  0  0  0  0  0  0  0  0  0  0
    6.3280   -6.7880    9.5380 C   0  0  0  0  0  0  0  0  0  0  0  0
    4.6550   -6.8330    7.2040 C   0  0  0  0  0  0  0  0  0  0  0  0
    3.7430   -6.9330    6.1500 C   0  0  0  0  0  0  0  0  0  0  0  0
  2  1  2  0
  3  2  1  0
  5  2  1  0
  4  3  1  0
  6  5  1  0
  7  6  1  0
  8  7  2  0
  9  7  2  0
 10  7  1  0
 11 10  2  0
 17 10  1  0
 12 11  1  0
 13 12  2  0
 14 13  1  0
 16 13  1  0
 15 14  1  0
 17 16  2  0
A    1
O4
A    2
C8
A    3
N2
A    4
O5
A    5
C7
A    6
N1
A    7
S1
A    8
O1
A    9
O2
A   10
C3
A   11
C6
A   12
C5
A   13
C4
A   14
O3
A   15
C9
A   16
C2
A   17
C1
M  END
>  <Id>  (15) 
3LK8_Z79_A_0

>  <ChainId>  (15) 
A

>  <AsymId>  (15) 
G

>  <SeqNum>  (15) 
0

>  <Name>  (15) 
N-hydroxy-N~2~-[(4-methoxyphenyl)sulfonyl]glycinamide

>  <SystematicName>  (15) 
N-hydroxy-2-[(4-methoxyphenyl)sulfonylamino]ethanamide

>  <Synonyms>  (15) 


>  <Type>  (15) 
NON-POLYMER

>  <Formula>  (15) 
C9 H12 N2 O5 S

>  <ObservedFormula>  (15) 
C9 S N2 O5

>  <MolecularWeight>  (15) 
260.267

>  <ModifiedDate>  (15) 
2011-06-04

>  <Parent>  (15) 


>  <OneLetterCode>  (15) 


>  <SubcomponentList>  (15) 


>  <AmbiguousFlag>  (15) 
N

>  <InsertionCode>  (15) 


>  <InstanceId>  (15) 
3LK8_Z79_A_0

>  <ChemCompId>  (15) 
Z79

>  <PdbId>  (15) 
3LK8

>  <ResidueNumber>  (15) 
0

>  <InChI>  (15) 
InChI=1S/C9H12N2O5S/c1-16-7-2-4-8(5-3-7)17(14,15)10-6-9(12)11-13/h2-5,10,13H,6H2,1H3,(H,11,12)

>  <InChIKey>  (15) 
WLZISXXOYYGJNT-UHFFFAOYSA-N

>  <SMILES>  (15) 
COc1ccc(cc1)S(=O)(=O)NCC(=O)NO

>  <MissingHeavyAtoms>  (15) 
0

>  <Model>  (15) 
1

>  <AltIds>  (15) 


>  <pKI>  (15) 
7.7

>  <ChemblID>  (15) 
CHEMBL83508

>  <standardized_canonical_smiles>  (15) 
COc1ccc(S(=O)(=O)NCC(=O)NO)cc1

$$$$
3RTT_KLH_A_0
     RDKit          3D

 20 21  0  0  0  0  0  0  0  0999 V2000
   -2.9450   -2.6550   -3.9010 O   0  0  0  0  0  0  0  0  0  0  0  0
   -1.7770   -2.7250   -4.2620 C   0  0  0  0  0  0  0  0  0  0  0  0
   -1.2820   -2.0810   -5.3100 N   0  0  0  0  0  0  0  0  0  0  0  0
   -2.0420   -1.1410   -5.9570 O   0  0  0  0  0  0  0  0  0  0  0  0
   -0.7900   -3.6060   -3.5750 C   0  0  0  0  0  0  0  0  0  0  0  0
   -1.2560   -4.9970   -3.6050 N   0  0  0  0  0  0  0  0  0  0  0  0
   -1.8880   -5.4110   -2.3750 C   0  0  0  0  0  0  0  0  0  0  0  0
   -1.3570   -4.3870   -1.3760 C   0  0  0  0  0  0  0  0  0  0  0  0
   -0.6230   -3.2520   -2.0930 C   0  0  0  0  0  0  0  0  0  0  0  0
   -1.0050   -5.9160   -4.8200 S   0  0  0  0  0  0  0  0  0  0  0  0
   -0.0880   -5.2530   -5.7090 O   0  0  0  0  0  0  0  0  0  0  0  0
   -0.4220   -7.1020   -4.2640 O   0  0  0  0  0  0  0  0  0  0  0  0
   -2.3020   -6.4110   -5.7230 C   0  0  0  0  0  0  0  0  0  0  0  0
   -3.5160   -5.5200   -5.6930 C   0  0  0  0  0  0  0  0  0  0  0  0
   -4.3000   -5.9840   -6.8840 C   0  0  0  0  0  0  0  0  0  0  0  0
   -5.6940   -6.0810   -6.8370 C   0  0  0  0  0  0  0  0  0  0  0  0
   -6.4000   -6.4990   -7.9750 C   0  0  0  0  0  0  0  0  0  0  0  0
   -3.5970   -6.3220   -8.0350 C   0  0  0  0  0  0  0  0  0  0  0  0
   -4.3010   -6.7360   -9.1700 C   0  0  0  0  0  0  0  0  0  0  0  0
   -5.7060   -6.8310   -9.1370 C   0  0  0  0  0  0  0  0  0  0  0  0
  2  1  2  0
  3  2  1  0
  5  2  1  0
  4  3  1  0
  6  5  1  0
  9  5  1  0
  7  6  1  0
 10  6  1  0
  8  7  1  0
  9  8  1  0
 11 10  2  0
 12 10  2  0
 13 10  1  0
 14 13  1  0
 15 14  1  0
 16 15  2  0
 18 15  1  0
 17 16  1  0
 20 17  2  0
 19 18  2  0
 20 19  1  0
A    1
O4
A    2
C13
A    3
N1
A    4
O2
A    5
C1
A    6
N2
A    7
C4
A    8
C6
A    9
C3
A   10
S1
A   11
O1
A   12
O3
A   13
C7
A   14
C8
A   15
C9
A   16
C10
A   17
C2
A   18
C11
A   19
C12
A   20
C5
M  END
>  <Id>  (16) 
3RTT_KLH_A_0

>  <ChainId>  (16) 
A

>  <AsymId>  (16) 
G

>  <SeqNum>  (16) 
0

>  <Name>  (16) 
N-hydroxy-1-[(2-phenylethyl)sulfonyl]-D-prolinamide

>  <SystematicName>  (16) 
(2R)-N-oxidanyl-1-phenethylsulfonyl-pyrrolidine-2-carboxamide

>  <Synonyms>  (16) 


>  <Type>  (16) 
NON-POLYMER

>  <Formula>  (16) 
C13 H18 N2 O4 S

>  <ObservedFormula>  (16) 
C13 S N2 O4

>  <MolecularWeight>  (16) 
298.358

>  <ModifiedDate>  (16) 
2012-06-29

>  <Parent>  (16) 


>  <OneLetterCode>  (16) 


>  <SubcomponentList>  (16) 


>  <AmbiguousFlag>  (16) 
N

>  <InsertionCode>  (16) 


>  <InstanceId>  (16) 
3RTT_KLH_A_0

>  <ChemCompId>  (16) 
KLH

>  <PdbId>  (16) 
3RTT

>  <ResidueNumber>  (16) 
0

>  <InChI>  (16) 
InChI=1S/C13H18N2O4S/c16-13(14-17)12-7-4-9-15(12)20(18,19)10-8-11-5-2-1-3-6-11/h1-3,5-6,12,17H,4,7-10H2,(H,14,16)/t12-/m1/s1

>  <InChIKey>  (16) 
FTQOZDRDOVWSBK-GFCCVEGCSA-N

>  <SMILES>  (16) 
c1ccc(cc1)CCS(=O)(=O)N2CCC[C@@H]2C(=O)NO

>  <MissingHeavyAtoms>  (16) 
0

>  <Model>  (16) 
1

>  <AltIds>  (16) 


>  <pKI>  (16) 
7.8

>  <ChemblID>  (16) 
CHEMBL2385481

>  <standardized_canonical_smiles>  (16) 
O=C(NO)[C@H]1CCCN1S(=O)(=O)CCc1ccccc1

$$$$
3RTS_KLG_A_0
     RDKit          3D

 17 17  0  0  0  0  0  0  0  0999 V2000
    2.7750   -2.6060    3.8310 O   0  0  0  0  0  0  0  0  0  0  0  0
    1.6380   -2.6540    4.2900 C   0  0  0  0  0  0  0  0  0  0  0  0
    1.2640   -2.0380    5.4060 N   0  0  0  0  0  0  0  0  0  0  0  0
    2.1930   -1.2600    6.0740 O   0  0  0  0  0  0  0  0  0  0  0  0
    0.5750   -3.4740    3.6340 C   0  0  0  0  0  0  0  0  0  0  0  0
    0.9860   -4.8570    3.5250 N   0  0  0  0  0  0  0  0  0  0  0  0
    1.4700   -5.8850    4.6770 S   0  0  0  0  0  0  0  0  0  0  0  0
    0.8880   -7.1380    4.6440 O   0  0  0  0  0  0  0  0  0  0  0  0
    0.4000   -5.4900    5.5550 O   0  0  0  0  0  0  0  0  0  0  0  0
    2.5660   -5.3750    5.8380 C   0  0  0  0  0  0  0  0  0  0  0  0
    2.7360   -6.3550    7.0060 C   0  0  0  0  0  0  0  0  0  0  0  0
    4.1300   -6.4100    7.5870 C   0  0  0  0  0  0  0  0  0  0  0  0
    5.2550   -6.3210    6.7680 C   0  0  0  0  0  0  0  0  0  0  0  0
    6.5140   -6.4210    7.3350 C   0  0  0  0  0  0  0  0  0  0  0  0
    4.2730   -6.6200    8.9670 C   0  0  0  0  0  0  0  0  0  0  0  0
    5.5350   -6.7100    9.5430 C   0  0  0  0  0  0  0  0  0  0  0  0
    6.6540   -6.6130    8.7190 C   0  0  0  0  0  0  0  0  0  0  0  0
  2  1  2  0
  3  2  1  0
  5  2  1  0
  4  3  1  0
  6  5  1  0
  7  6  1  0
  8  7  2  0
  9  7  2  0
 10  7  1  0
 11 10  1  0
 12 11  1  0
 13 12  2  0
 15 12  1  0
 14 13  1  0
 17 14  2  0
 16 15  2  0
 17 16  1  0
A    1
O3
A    2
C10
A    3
N1
A    4
O4
A    5
C9
A    6
N2
A    7
S1
A    8
O1
A    9
O2
A   10
C8
A   11
C7
A   12
C6
A   13
C3
A   14
C1
A   15
C5
A   16
C4
A   17
C2
M  END
>  <Id>  (17) 
3RTS_KLG_A_0

>  <ChainId>  (17) 
A

>  <AsymId>  (17) 
G

>  <SeqNum>  (17) 
0

>  <Name>  (17) 
N-hydroxy-N~2~-[(2-phenylethyl)sulfonyl]glycinamide

>  <SystematicName>  (17) 
N-oxidanyl-2-(phenethylsulfonylamino)ethanamide

>  <Synonyms>  (17) 


>  <Type>  (17) 
NON-POLYMER

>  <Formula>  (17) 
C10 H14 N2 O4 S

>  <ObservedFormula>  (17) 
C10 S N2 O4

>  <MolecularWeight>  (17) 
258.294

>  <ModifiedDate>  (17) 
2012-06-29

>  <Parent>  (17) 


>  <OneLetterCode>  (17) 


>  <SubcomponentList>  (17) 


>  <AmbiguousFlag>  (17) 
N

>  <InsertionCode>  (17) 


>  <InstanceId>  (17) 
3RTS_KLG_A_0

>  <ChemCompId>  (17) 
KLG

>  <PdbId>  (17) 
3RTS

>  <ResidueNumber>  (17) 
0

>  <InChI>  (17) 
InChI=1S/C10H14N2O4S/c13-10(12-14)8-11-17(15,16)7-6-9-4-2-1-3-5-9/h1-5,11,14H,6-8H2,(H,12,13)

>  <InChIKey>  (17) 
CWDYQHCEZVYJNX-UHFFFAOYSA-N

>  <SMILES>  (17) 
c1ccc(cc1)CCS(=O)(=O)NCC(=O)NO

>  <MissingHeavyAtoms>  (17) 
0

>  <Model>  (17) 
1

>  <AltIds>  (17) 


>  <pKI>  (17) 
7.64

>  <ChemblID>  (17) 
CHEMBL2385480

>  <standardized_canonical_smiles>  (17) 
O=C(CNS(=O)(=O)CCc1ccccc1)NO

$$$$
3TSK_QEG_A_306
     RDKit          3D

 40 42  0  0  0  0  0  0  0  0999 V2000
    9.7400   26.2240    4.4400 O   0  0  0  0  0  0  0  0  0  0  0  0
    2.4460   22.3030    8.4120 S   0  0  0  0  0  0  0  0  0  0  0  0
    8.5610   26.3170    4.3850 C   0  0  0  0  0  0  0  0  0  0  0  0
    7.7730   25.1900    3.7690 C   0  0  0  0  0  0  0  0  0  0  0  0
    7.6830   23.8750    4.5200 C   0  0  0  0  0  0  0  0  0  0  0  0
    5.1640   24.2160    4.5080 C   0  0  0  0  0  0  0  0  0  0  0  0
    4.8770   22.7090    6.7400 C   0  0  0  0  0  0  0  0  0  0  0  0
    3.7230   23.2350    6.1920 C   0  0  0  0  0  0  0  0  0  0  0  0
    3.8940   24.0030    5.0500 C   0  0  0  0  0  0  0  0  0  0  0  0
    2.3880   22.9330    6.8600 C   0  0  0  0  0  0  0  0  0  0  0  0
    1.0410   22.9600    6.6160 C   0  0  0  0  0  0  0  0  0  0  0  0
    0.2250   22.4620    7.6840 C   0  0  0  0  0  0  0  0  0  0  0  0
   -1.2390   22.4170    7.7510 C   0  0  0  0  0  0  0  0  0  0  0  0
   -1.8500   21.2850    8.1820 C   0  0  0  0  0  0  0  0  0  0  0  0
   -3.2140   21.2120    8.2760 C   0  0  0  0  0  0  0  0  0  0  0  0
   -3.9630   22.3130    7.9830 C   0  0  0  0  0  0  0  0  0  0  0  0
   -3.3530   23.4680    7.5780 C   0  0  0  0  0  0  0  0  0  0  0  0
   -1.9860   23.5290    7.4710 C   0  0  0  0  0  0  0  0  0  0  0  0
    6.3030   23.6610    5.0810 C   0  0  0  0  0  0  0  0  0  0  0  0
    6.1420   22.9080    6.2190 C   0  0  0  0  0  0  0  0  0  0  0  0
    0.8590   22.0460    8.8030 C   0  0  0  0  0  0  0  0  0  0  0  0
    7.8800   27.3640    4.8260 N   0  0  0  0  0  0  0  0  0  0  0  0
    8.4140   28.5690    5.4320 C   0  0  0  0  0  0  0  0  0  0  0  0
    7.7580   28.8110    6.7840 C   0  0  0  0  0  0  0  0  0  0  0  0
    6.6890   28.3540    7.1000 O   0  0  0  0  0  0  0  0  0  0  0  0
    8.2420   29.7180    4.4090 C   0  0  0  0  0  0  0  0  0  0  0  0
    9.5000   30.5670    4.1040 C   0  0  0  0  0  0  0  0  0  0  0  0
    9.5690   31.4830    2.8770 C   0  0  0  0  0  0  0  0  0  0  0  0
    8.8960   31.3830    1.8950 O   0  0  0  0  0  0  0  0  0  0  0  0
   10.4770   32.4300    2.9030 N   0  0  0  0  0  0  0  0  0  0  0  0
    8.4220   29.5400    7.6470 N   0  0  0  0  0  0  0  0  0  0  0  0
    7.8550   29.7800    8.9520 C   0  0  0  0  0  0  0  0  0  0  0  0
    6.5850   30.5830    8.9020 C   0  0  0  0  0  0  0  0  0  0  0  0
    6.4480   31.5120    8.1780 O   0  0  0  0  0  0  0  0  0  0  0  0
    8.8210   30.4380    9.8880 C   0  0  0  0  0  0  0  0  0  0  0  0
    8.9700   29.8870   11.2870 C   0  0  0  0  0  0  0  0  0  0  0  0
    9.8300   30.4360   12.3560 C   0  0  0  0  0  0  0  0  0  0  0  0
    9.8160   29.8460   13.4300 O   0  0  0  0  0  0  0  0  0  0  0  0
   10.5260   31.4550   12.2140 O   0  0  0  0  0  0  0  0  0  0  0  0
    5.6170   30.1980    9.6890 N   0  0  0  0  0  0  0  0  0  0  0  0
  3  1  2  0
 10  2  1  0
 21  2  1  0
  4  3  1  0
 22  3  1  0
  5  4  1  0
 19  5  1  0
  9  6  2  0
 19  6  1  0
  8  7  2  0
 20  7  1  0
  9  8  1  0
 10  8  1  0
 11 10  2  0
 12 11  1  0
 13 12  1  0
 21 12  2  0
 14 13  2  0
 18 13  1  0
 15 14  1  0
 16 15  2  0
 17 16  1  0
 18 17  2  0
 20 19  2  0
 23 22  1  0
 24 23  1  0
 26 23  1  0
 25 24  2  0
 31 24  1  0
 27 26  1  0
 28 27  1  0
 29 28  2  0
 30 28  1  0
 32 31  1  0
 33 32  1  0
 35 32  1  0
 34 33  2  0
 40 33  1  0
 36 35  1  0
 37 36  1  0
 38 37  2  0
 39 37  1  0
A    1
O2
A    2
S7
A    3
C11
A    4
C12
A    5
C13
A    6
C14
A    7
C15
A    8
C16
A    9
C17
A   10
C18
A   11
C19
A   12
C20
A   13
C21
A   14
C22
A   15
C23
A   16
C24
A   17
C25
A   18
C26
A   19
C27
A   20
C28
A   21
C29
A   22
N2
A   23
C7
A   24
C6
A   25
O1
A   26
C8
A   27
C9
A   28
C10
A   29
O4E
A   30
N4
A   31
N1
A   32
C2
A   33
C1
A   34
O9
A   35
C3
A   36
C4
A   37
C5
A   38
O8E
A   39
O8
A   40
N9
M  END
>  <Id>  (18) 
3TSK_QEG_A_306

>  <ChainId>  (18) 
A

>  <AsymId>  (18) 
G

>  <SeqNum>  (18) 
306

>  <Name>  (18) 
N~2~-{3-[4-(4-phenylthiophen-2-yl)phenyl]propanoyl}-L-glutaminyl-L-alpha-glutamine

>  <SystematicName>  (18) 
(4S)-5-azanyl-4-[[(2S)-5-azanyl-5-oxidanylidene-2-[3-[4-(4-phenylthiophen-2-yl)phenyl]propanoylamino]pentanoyl]amino]-5-oxidanylidene-pentanoic acid

>  <Synonyms>  (18) 


>  <Type>  (18) 
NON-POLYMER

>  <Formula>  (18) 
C29 H32 N4 O6 S

>  <ObservedFormula>  (18) 
S C29 N4 O6

>  <MolecularWeight>  (18) 
564.653

>  <ModifiedDate>  (18) 
2012-06-15

>  <Parent>  (18) 


>  <OneLetterCode>  (18) 


>  <SubcomponentList>  (18) 
03J GLN GLU NH2

>  <AmbiguousFlag>  (18) 
N

>  <InsertionCode>  (18) 


>  <InstanceId>  (18) 
3TSK_QEG_A_306

>  <ChemCompId>  (18) 
QEG

>  <PdbId>  (18) 
3TSK

>  <ResidueNumber>  (18) 
306

>  <InChI>  (18) 
InChI=1S/C29H32N4O6S/c30-25(34)13-11-23(29(39)33-22(28(31)38)12-15-27(36)37)32-26(35)14-8-18-6-9-20(10-7-18)24-16-21(17-40-24)19-4-2-1-3-5-19/h1-7,9-10,16-17,22-23H,8,11-15H2,(H2,30,34)(H2,31,38)(H,32,35)(H,33,39)(H,36,37)/t22-,23-/m0/s1

>  <InChIKey>  (18) 
KGPPRBTYRFIDAL-GOTSBHOMSA-N

>  <SMILES>  (18) 
c1ccc(cc1)c2cc(sc2)c3ccc(cc3)CCC(=O)N[C@@H](CCC(=O)N)C(=O)N[C@@H](CCC(=O)O)C(=O)N

>  <MissingHeavyAtoms>  (18) 
0

>  <Model>  (18) 
1

>  <AltIds>  (18) 


>  <pKI>  (18) 
6.5

>  <ChemblID>  (18) 
CHEMBL3675596

>  <standardized_canonical_smiles>  (18) 
NC(=O)CC[C@H](NC(=O)CCc1ccc(-c2cc(-c3ccccc3)cs2)cc1)C(=O)N[C@@H](CCC(=O)O)C(N)=O

$$$$
3LIK_EEG_A_301
     RDKit          3D

 40 42  0  0  0  0  0  0  0  0999 V2000
    9.8280   26.0040    4.5010 O   0  0  0  0  0  0  0  0  0  0  0  0
    2.7520   22.3740    8.6150 S   0  0  0  0  0  0  0  0  0  0  0  0
    8.7340   26.1580    4.0480 C   0  0  0  0  0  0  0  0  0  0  0  0
    8.0240   25.0240    3.3070 C   0  0  0  0  0  0  0  0  0  0  0  0
    7.8240   23.7690    4.1440 C   0  0  0  0  0  0  0  0  0  0  0  0
    5.2080   24.1310    4.3600 C   0  0  0  0  0  0  0  0  0  0  0  0
    5.3230   22.5490    6.7990 C   0  0  0  0  0  0  0  0  0  0  0  0
    4.0790   23.0640    6.2870 C   0  0  0  0  0  0  0  0  0  0  0  0
    4.0030   23.8460    5.0940 C   0  0  0  0  0  0  0  0  0  0  0  0
    2.8130   22.7430    7.0870 C   0  0  0  0  0  0  0  0  0  0  0  0
    1.4110   22.7470    6.4930 C   0  0  0  0  0  0  0  0  0  0  0  0
    0.3600   22.3420    7.7320 C   0  0  0  0  0  0  0  0  0  0  0  0
   -1.1480   22.2940    7.5200 C   0  0  0  0  0  0  0  0  0  0  0  0
   -1.9130   21.3110    8.0770 C   0  0  0  0  0  0  0  0  0  0  0  0
   -3.3230   21.3120    7.8240 C   0  0  0  0  0  0  0  0  0  0  0  0
   -3.8990   22.3170    6.9700 C   0  0  0  0  0  0  0  0  0  0  0  0
   -3.0940   23.3160    6.3790 C   0  0  0  0  0  0  0  0  0  0  0  0
   -1.7270   23.3270    6.6230 C   0  0  0  0  0  0  0  0  0  0  0  0
    6.5000   23.6030    4.9020 C   0  0  0  0  0  0  0  0  0  0  0  0
    6.5490   22.8540    6.0560 C   0  0  0  0  0  0  0  0  0  0  0  0
    1.1030   22.1290    8.9660 C   0  0  0  0  0  0  0  0  0  0  0  0
    7.8900   27.2780    4.4360 N   0  0  0  0  0  0  0  0  0  0  0  0
    8.4970   28.4490    5.0590 C   0  0  0  0  0  0  0  0  0  0  0  0
    7.7930   28.7170    6.3940 C   0  0  0  0  0  0  0  0  0  0  0  0
    6.6200   28.5580    6.4770 O   0  0  0  0  0  0  0  0  0  0  0  0
    8.3390   29.6620    4.1290 C   0  0  0  0  0  0  0  0  0  0  0  0
    9.5940   30.4250    3.7290 C   0  0  0  0  0  0  0  0  0  0  0  0
    9.3820   31.6180    2.8020 C   0  0  0  0  0  0  0  0  0  0  0  0
    9.5890   32.7130    3.1980 O   0  0  0  0  0  0  0  0  0  0  0  0
    8.7330   31.4260    1.5830 O   0  0  0  0  0  0  0  0  0  0  0  0
    8.4630   29.5250    7.3940 N   0  0  0  0  0  0  0  0  0  0  0  0
    7.6500   29.8940    8.5330 C   0  0  0  0  0  0  0  0  0  0  0  0
    6.7370   31.0620    8.1530 C   0  0  0  0  0  0  0  0  0  0  0  0
    5.6780   31.1890    8.6720 O   0  0  0  0  0  0  0  0  0  0  0  0
    8.5270   30.1650    9.7660 C   0  0  0  0  0  0  0  0  0  0  0  0
    8.8270   31.6160   10.1530 C   0  0  0  0  0  0  0  0  0  0  0  0
   10.2150   31.9420   10.7150 C   0  0  0  0  0  0  0  0  0  0  0  0
   10.6920   31.2430   11.5470 O   0  0  0  0  0  0  0  0  0  0  0  0
   11.0590   32.7830    9.9790 O   0  0  0  0  0  0  0  0  0  0  0  0
    7.0570   31.8590    6.9870 N   0  0  0  0  0  0  0  0  0  0  0  0
  3  1  2  0
 10  2  1  0
 21  2  1  0
  4  3  1  0
 22  3  1  0
  5  4  1  0
 19  5  1  0
  9  6  2  0
 19  6  1  0
  8  7  2  0
 20  7  1  0
  9  8  1  0
 10  8  1  0
 11 10  2  0
 12 11  1  0
 13 12  1  0
 21 12  2  0
 14 13  2  0
 18 13  1  0
 15 14  1  0
 16 15  2  0
 17 16  1  0
 18 17  2  0
 20 19  2  0
 23 22  1  0
 24 23  1  0
 26 23  1  0
 25 24  2  0
 31 24  1  0
 27 26  1  0
 28 27  1  0
 29 28  2  0
 30 28  1  0
 32 31  1  0
 33 32  1  0
 35 32  1  0
 34 33  2  0
 40 33  1  0
 36 35  1  0
 37 36  1  0
 38 37  2  0
 39 37  1  0
A    1
O2
A    2
S7
A    3
C11
A    4
C12
A    5
C13
A    6
C14
A    7
C15
A    8
C16
A    9
C17
A   10
C18
A   11
C19
A   12
C20
A   13
C21
A   14
C22
A   15
C23
A   16
C24
A   17
C25
A   18
C26
A   19
C27
A   20
C28
A   21
C29
A   22
N2
A   23
C7
A   24
C6
A   25
O1
A   26
C8
A   27
C9
A   28
C10
A   29
O4E
A   30
O4
A   31
N1
A   32
C2
A   33
C1
A   34
O9
A   35
C3
A   36
C4
A   37
C5
A   38
O8E
A   39
O8
A   40
N9
M  END
>  <Id>  (19) 
3LIK_EEG_A_301

>  <ChainId>  (19) 
A

>  <AsymId>  (19) 
G

>  <SeqNum>  (19) 
301

>  <Name>  (19) 
N-{3-[4-(4-phenylthiophen-2-yl)phenyl]propanoyl}-L-alpha-glutamyl-L-alpha-glutamyl-amide

>  <SystematicName>  (19) 
(4S)-5-azanyl-4-[[(2S)-5-hydroxy-5-oxo-2-[3-[4-(4-phenylthiophen-2-yl)phenyl]propanoylamino]pentanoyl]amino]-5-oxo-pentanoic acid

>  <Synonyms>  (19) 


>  <Type>  (19) 
NON-POLYMER

>  <Formula>  (19) 
C29 H31 N3 O7 S

>  <ObservedFormula>  (19) 
S C29 N3 O7

>  <MolecularWeight>  (19) 
565.637

>  <ModifiedDate>  (19) 
2011-09-29

>  <Parent>  (19) 


>  <OneLetterCode>  (19) 


>  <SubcomponentList>  (19) 
03J GLU GLU NH2

>  <AmbiguousFlag>  (19) 
N

>  <InsertionCode>  (19) 


>  <InstanceId>  (19) 
3LIK_EEG_A_301

>  <ChemCompId>  (19) 
EEG

>  <PdbId>  (19) 
3LIK

>  <ResidueNumber>  (19) 
301

>  <InChI>  (19) 
InChI=1S/C29H31N3O7S/c30-28(38)22(11-14-26(34)35)32-29(39)23(12-15-27(36)37)31-25(33)13-8-18-6-9-20(10-7-18)24-16-21(17-40-24)19-4-2-1-3-5-19/h1-7,9-10,16-17,22-23H,8,11-15H2,(H2,30,38)(H,31,33)(H,32,39)(H,34,35)(H,36,37)/t22-,23-/m0/s1

>  <InChIKey>  (19) 
MMIHYNVQXYWTFM-GOTSBHOMSA-N

>  <SMILES>  (19) 
c1ccc(cc1)c2cc(sc2)c3ccc(cc3)CCC(=O)N[C@@H](CCC(=O)O)C(=O)N[C@@H](CCC(=O)O)C(=O)N

>  <MissingHeavyAtoms>  (19) 
0

>  <Model>  (19) 
1

>  <AltIds>  (19) 


>  <pKI>  (19) 
8.43

>  <ChemblID>  (19) 
CHEMBL3675606

>  <standardized_canonical_smiles>  (19) 
NC(=O)[C@@H](CCC(=O)O)NC(=O)[C@H](CCC(=O)O)NC(=O)CCc1ccc(-c2cc(-c3ccccc3)cs2)cc1

$$$$
3TS4_EEG_A_306
     RDKit          3D

 40 42  0  0  0  0  0  0  0  0999 V2000
   10.2960   26.6000    3.2930 O   0  0  0  0  0  0  0  0  0  0  0  0
    2.8430   22.5900    7.7400 S   0  0  0  0  0  0  0  0  0  0  0  0
    9.1700   26.7020    2.7720 C   0  0  0  0  0  0  0  0  0  0  0  0
    7.9050   26.4690    3.6460 C   0  0  0  0  0  0  0  0  0  0  0  0
    7.4490   25.0310    3.4090 C   0  0  0  0  0  0  0  0  0  0  0  0
    4.9870   25.1020    3.7560 C   0  0  0  0  0  0  0  0  0  0  0  0
    5.2110   23.4950    6.0110 C   0  0  0  0  0  0  0  0  0  0  0  0
    3.9630   23.9550    5.5660 C   0  0  0  0  0  0  0  0  0  0  0  0
    3.8360   24.7570    4.4470 C   0  0  0  0  0  0  0  0  0  0  0  0
    2.7260   23.5580    6.3890 C   0  0  0  0  0  0  0  0  0  0  0  0
    1.4020   23.9480    6.2260 C   0  0  0  0  0  0  0  0  0  0  0  0
    0.5550   23.3870    7.2140 C   0  0  0  0  0  0  0  0  0  0  0  0
   -0.9070   23.6320    7.2560 C   0  0  0  0  0  0  0  0  0  0  0  0
   -1.4140   24.7630    6.6430 C   0  0  0  0  0  0  0  0  0  0  0  0
   -2.7780   25.0010    6.6840 C   0  0  0  0  0  0  0  0  0  0  0  0
   -3.6090   24.1210    7.3230 C   0  0  0  0  0  0  0  0  0  0  0  0
   -3.0990   22.9760    7.9370 C   0  0  0  0  0  0  0  0  0  0  0  0
   -1.7380   22.7380    7.9000 C   0  0  0  0  0  0  0  0  0  0  0  0
    6.2070   24.6350    4.1910 C   0  0  0  0  0  0  0  0  0  0  0  0
    6.3380   23.8440    5.3340 C   0  0  0  0  0  0  0  0  0  0  0  0
    1.2020   22.5930    8.1570 C   0  0  0  0  0  0  0  0  0  0  0  0
    8.9990   26.9740    1.3920 N   0  0  0  0  0  0  0  0  0  0  0  0
   10.1740   27.1430    0.5750 C   0  0  0  0  0  0  0  0  0  0  0  0
   10.6320   28.5370    0.3510 C   0  0  0  0  0  0  0  0  0  0  0  0
   11.6390   28.7550   -0.3700 O   0  0  0  0  0  0  0  0  0  0  0  0
    9.7600   26.4780   -0.7010 C   0  0  0  0  0  0  0  0  0  0  0  0
    9.5700   25.0040   -0.5840 C   0  0  0  0  0  0  0  0  0  0  0  0
    8.0960   24.6090   -0.3200 C   0  0  0  0  0  0  0  0  0  0  0  0
    7.3120   25.4190   -0.7680 O   0  0  0  0  0  0  0  0  0  0  0  0
    7.8420   23.6230    0.2760 O   0  0  0  0  0  0  0  0  0  0  0  0
    9.9160   29.5950    0.9410 N   0  0  0  0  0  0  0  0  0  0  0  0
   10.3470   31.0270    0.7240 C   0  0  0  0  0  0  0  0  0  0  0  0
   10.5670   31.6680    1.9950 C   0  0  0  0  0  0  0  0  0  0  0  0
    9.9440   31.2660    3.0430 O   0  0  0  0  0  0  0  0  0  0  0  0
    9.3400   31.8540   -0.0930 C   0  0  0  0  0  0  0  0  0  0  0  0
    8.5150   31.1890   -0.9620 C   0  0  0  0  0  0  0  0  0  0  0  0
    9.0700   31.1520   -2.4250 C   0  0  0  0  0  0  0  0  0  0  0  0
    9.6360   30.0260   -2.8320 O   0  0  0  0  0  0  0  0  0  0  0  0
    9.0260   32.1650   -3.1490 O   0  0  0  0  0  0  0  0  0  0  0  0
   11.5260   32.8040    2.0900 N   0  0  0  0  0  0  0  0  0  0  0  0
  3  1  2  0
 10  2  1  0
 21  2  1  0
  4  3  1  0
 22  3  1  0
  5  4  1  0
 19  5  1  0
  9  6  2  0
 19  6  1  0
  8  7  2  0
 20  7  1  0
  9  8  1  0
 10  8  1  0
 11 10  2  0
 12 11  1  0
 13 12  1  0
 21 12  2  0
 14 13  2  0
 18 13  1  0
 15 14  1  0
 16 15  2  0
 17 16  1  0
 18 17  2  0
 20 19  2  0
 23 22  1  0
 24 23  1  0
 26 23  1  0
 25 24  2  0
 31 24  1  0
 27 26  1  0
 28 27  1  0
 29 28  2  0
 30 28  1  0
 32 31  1  0
 33 32  1  0
 35 32  1  0
 34 33  2  0
 40 33  1  0
 36 35  1  0
 37 36  1  0
 38 37  2  0
 39 37  1  0
A    1
O2
A    2
S7
A    3
C11
A    4
C12
A    5
C13
A    6
C14
A    7
C15
A    8
C16
A    9
C17
A   10
C18
A   11
C19
A   12
C20
A   13
C21
A   14
C22
A   15
C23
A   16
C24
A   17
C25
A   18
C26
A   19
C27
A   20
C28
A   21
C29
A   22
N2
A   23
C7
A   24
C6
A   25
O1
A   26
C8
A   27
C9
A   28
C10
A   29
O4E
A   30
O4
A   31
N1
A   32
C2
A   33
C1
A   34
O9
A   35
C3
A   36
C4
A   37
C5
A   38
O8E
A   39
O8
A   40
N9
M  END
>  <Id>  (20) 
3TS4_EEG_A_306

>  <ChainId>  (20) 
A

>  <AsymId>  (20) 
G

>  <SeqNum>  (20) 
306

>  <Name>  (20) 
N-{3-[4-(4-phenylthiophen-2-yl)phenyl]propanoyl}-L-alpha-glutamyl-L-alpha-glutamyl-amide

>  <SystematicName>  (20) 
(4S)-5-azanyl-4-[[(2S)-5-hydroxy-5-oxo-2-[3-[4-(4-phenylthiophen-2-yl)phenyl]propanoylamino]pentanoyl]amino]-5-oxo-pentanoic acid

>  <Synonyms>  (20) 


>  <Type>  (20) 
NON-POLYMER

>  <Formula>  (20) 
C29 H31 N3 O7 S

>  <ObservedFormula>  (20) 
S C29 N3 O7

>  <MolecularWeight>  (20) 
565.637

>  <ModifiedDate>  (20) 
2011-09-29

>  <Parent>  (20) 


>  <OneLetterCode>  (20) 


>  <SubcomponentList>  (20) 
03J GLU GLU NH2

>  <AmbiguousFlag>  (20) 
N

>  <InsertionCode>  (20) 


>  <InstanceId>  (20) 
3TS4_EEG_A_306

>  <ChemCompId>  (20) 
EEG

>  <PdbId>  (20) 
3TS4

>  <ResidueNumber>  (20) 
306

>  <InChI>  (20) 
InChI=1S/C29H31N3O7S/c30-28(38)22(11-14-26(34)35)32-29(39)23(12-15-27(36)37)31-25(33)13-8-18-6-9-20(10-7-18)24-16-21(17-40-24)19-4-2-1-3-5-19/h1-7,9-10,16-17,22-23H,8,11-15H2,(H2,30,38)(H,31,33)(H,32,39)(H,34,35)(H,36,37)/t22-,23-/m0/s1

>  <InChIKey>  (20) 
MMIHYNVQXYWTFM-GOTSBHOMSA-N

>  <SMILES>  (20) 
c1ccc(cc1)c2cc(sc2)c3ccc(cc3)CCC(=O)N[C@@H](CCC(=O)O)C(=O)N[C@@H](CCC(=O)O)C(=O)N

>  <MissingHeavyAtoms>  (20) 
0

>  <Model>  (20) 
1

>  <AltIds>  (20) 


>  <pKI>  (20) 
8.43

>  <ChemblID>  (20) 
CHEMBL3675606

>  <standardized_canonical_smiles>  (20) 
NC(=O)[C@@H](CCC(=O)O)NC(=O)[C@H](CCC(=O)O)NC(=O)CCc1ccc(-c2cc(-c3ccccc3)cs2)cc1

$$$$
3LIL_EEA_A_301
     RDKit          3D

 41 43  0  0  0  0  0  0  0  0999 V2000
    7.9270   24.8860    3.5260 C   0  0  0  0  0  0  0  0  0  0  0  0
   -2.7870   22.7180   11.1680 Cl  0  0  0  0  0  0  0  0  0  0  0  0
    8.0350   23.5920    4.3160 C   0  0  0  0  0  0  0  0  0  0  0  0
    9.8400   25.7920    4.5680 O   0  0  0  0  0  0  0  0  0  0  0  0
    6.8060   23.1240    5.1080 C   0  0  0  0  0  0  0  0  0  0  0  0
    5.3920   23.6500    5.0670 C   0  0  0  0  0  0  0  0  0  0  0  0
    4.6620   22.8010    5.9380 C   0  0  0  0  0  0  0  0  0  0  0  0
    3.1860   22.8150    6.2750 C   0  0  0  0  0  0  0  0  0  0  0  0
    2.7790   22.0030    7.4720 C   0  0  0  0  0  0  0  0  0  0  0  0
    1.4150   21.9680    7.8250 C   0  0  0  0  0  0  0  0  0  0  0  0
    0.4760   22.6700    7.0160 C   0  0  0  0  0  0  0  0  0  0  0  0
    0.8790   23.4470    5.8540 C   0  0  0  0  0  0  0  0  0  0  0  0
    2.2730   23.4980    5.4670 C   0  0  0  0  0  0  0  0  0  0  0  0
    8.7250   25.9950    4.2060 C   0  0  0  0  0  0  0  0  0  0  0  0
    5.5100   21.8280    6.5050 N   0  0  0  0  0  0  0  0  0  0  0  0
    6.8520   22.0690    5.9610 O   0  0  0  0  0  0  0  0  0  0  0  0
   -0.9850   22.7050    7.4610 C   0  0  0  0  0  0  0  0  0  0  0  0
   -1.2420   22.6970    8.9270 C   0  0  0  0  0  0  0  0  0  0  0  0
   -2.5230   22.8020    9.4000 C   0  0  0  0  0  0  0  0  0  0  0  0
   -3.5950   22.9940    8.4870 C   0  0  0  0  0  0  0  0  0  0  0  0
   -3.3300   23.0880    7.0730 C   0  0  0  0  0  0  0  0  0  0  0  0
   -1.9940   22.9740    6.5820 C   0  0  0  0  0  0  0  0  0  0  0  0
    7.9600   27.1250    4.7170 N   0  0  0  0  0  0  0  0  0  0  0  0
    8.6640   28.1570    5.4790 C   0  0  0  0  0  0  0  0  0  0  0  0
    7.9200   28.3580    6.7980 C   0  0  0  0  0  0  0  0  0  0  0  0
    6.7380   28.1940    6.8540 O   0  0  0  0  0  0  0  0  0  0  0  0
    8.6070   29.5080    4.7610 C   0  0  0  0  0  0  0  0  0  0  0  0
    9.5930   29.8290    3.6490 C   0  0  0  0  0  0  0  0  0  0  0  0
    9.2810   31.2240    3.1480 C   0  0  0  0  0  0  0  0  0  0  0  0
    8.5240   31.3740    2.1350 O   0  0  0  0  0  0  0  0  0  0  0  0
    9.7230   32.2590    3.9020 O   0  0  0  0  0  0  0  0  0  0  0  0
    8.5820   29.1280    7.8280 N   0  0  0  0  0  0  0  0  0  0  0  0
    7.7440   29.4870    8.9500 C   0  0  0  0  0  0  0  0  0  0  0  0
    6.8750   30.6960    8.5980 C   0  0  0  0  0  0  0  0  0  0  0  0
    7.0790   31.3330    7.6130 O   0  0  0  0  0  0  0  0  0  0  0  0
    8.5710   29.6200   10.2390 C   0  0  0  0  0  0  0  0  0  0  0  0
    8.9290   31.0230   10.7300 C   0  0  0  0  0  0  0  0  0  0  0  0
   10.3240   31.2540   11.3310 C   0  0  0  0  0  0  0  0  0  0  0  0
   11.1410   32.2680   10.8010 O   0  0  0  0  0  0  0  0  0  0  0  0
   10.5950   30.7470   12.3760 O   0  0  0  0  0  0  0  0  0  0  0  0
    5.6640   30.9480    9.3460 N   0  0  0  0  0  0  0  0  0  0  0  0
  3  1  1  0
 14  1  1  0
 19  2  1  0
  5  3  1  0
 14  4  2  0
  6  5  2  0
 16  5  1  0
  7  6  1  0
  8  7  1  0
 15  7  2  0
  9  8  2  0
 13  8  1  0
 10  9  1  0
 11 10  2  0
 12 11  1  0
 17 11  1  0
 13 12  2  0
 23 14  1  0
 16 15  1  0
 18 17  2  0
 22 17  1  0
 19 18  1  0
 20 19  2  0
 21 20  1  0
 22 21  2  0
 24 23  1  0
 25 24  1  0
 27 24  1  0
 26 25  2  0
 32 25  1  0
 28 27  1  0
 29 28  1  0
 30 29  2  0
 31 29  1  0
 33 32  1  0
 34 33  1  0
 36 33  1  0
 35 34  2  0
 41 34  1  0
 37 36  1  0
 38 37  1  0
 39 38  2  0
 40 38  1  0
A    1
C1
A    2
CL1
A    3
C2
A    4
O2
A    5
C3
A    6
C4
A    7
C5
A    8
C6
A    9
C7
A   10
C8
A   11
C9
A   12
C10
A   13
C11
A   14
C12
A   15
N12
A   16
O12
A   17
C18
A   18
C19
A   19
C20
A   20
C21
A   21
C22
A   22
C23
A   23
N2
A   24
C13
A   25
C14
A   26
O1
A   27
C15
A   28
C16
A   29
C17
A   30
O4
A   31
O4E
A   32
N1
A   33
C24
A   34
C28
A   35
O9
A   36
C25
A   37
C26
A   38
C27
A   39
O8
A   40
O8E
A   41
N9
M  END
>  <Id>  (21) 
3LIL_EEA_A_301

>  <ChainId>  (21) 
A

>  <AsymId>  (21) 
G

>  <SeqNum>  (21) 
301

>  <Name>  (21) 
N-{3-[3-(3'-chlorobiphenyl-4-yl)isoxazol-5-yl]propanoyl}-L-alpha-glutamyl-L-alpha-glutamyl-amide

>  <SystematicName>  (21) 
(4S)-5-azanyl-4-[[(2S)-2-[3-[3-[4-(3-chlorophenyl)phenyl]-1,2-oxazol-5-yl]propanoylamino]-5-oxidanyl-5-oxidanylidene-pentanoyl]amino]-5-oxidanylidene-pentanoic acid

>  <Synonyms>  (21) 


>  <Type>  (21) 
NON-POLYMER

>  <Formula>  (21) 
C28 H29 Cl N4 O8

>  <ObservedFormula>  (21) 
C28 Cl N4 O8

>  <MolecularWeight>  (21) 
585.005

>  <ModifiedDate>  (21) 
2012-09-13

>  <Parent>  (21) 


>  <OneLetterCode>  (21) 


>  <SubcomponentList>  (21) 
0YD GLU GLU NH2

>  <AmbiguousFlag>  (21) 
N

>  <InsertionCode>  (21) 


>  <InstanceId>  (21) 
3LIL_EEA_A_301

>  <ChemCompId>  (21) 
EEA

>  <PdbId>  (21) 
3LIL

>  <ResidueNumber>  (21) 
301

>  <InChI>  (21) 
InChI=1S/C28H29ClN4O8/c29-19-3-1-2-18(14-19)16-4-6-17(7-5-16)23-15-20(41-33-23)8-11-24(34)31-22(10-13-26(37)38)28(40)32-21(27(30)39)9-12-25(35)36/h1-7,14-15,21-22H,8-13H2,(H2,30,39)(H,31,34)(H,32,40)(H,35,36)(H,37,38)/t21-,22-/m0/s1

>  <InChIKey>  (21) 
KOVQMCGGWATESY-VXKWHMMOSA-N

>  <SMILES>  (21) 
c1cc(cc(c1)Cl)c2ccc(cc2)c3cc(on3)CCC(=O)N[C@@H](CCC(=O)O)C(=O)N[C@@H](CCC(=O)O)C(=O)N

>  <MissingHeavyAtoms>  (21) 
0

>  <Model>  (21) 
1

>  <AltIds>  (21) 


>  <pKI>  (21) 
8.08

>  <ChemblID>  (21) 
CHEMBL1232487

>  <standardized_canonical_smiles>  (21) 
NC(=O)[C@H](CCC(=O)O)NC(=O)[C@H](CCC(=O)O)NC(=O)CCc1cc(-c2ccc(-c3cccc(Cl)c3)cc2)no1

$$$$
3LIR_EEC_A_1
     RDKit          3D

 34 35  0  0  0  0  0  0  0  0999 V2000
    9.8760   26.1830    4.3700 O   0  0  0  0  0  0  0  0  0  0  0  0
    5.6310   22.2820    6.4150 N   0  0  0  0  0  0  0  0  0  0  0  0
    6.9020   22.6120    5.8790 O   0  0  0  0  0  0  0  0  0  0  0  0
    8.6790   26.3970    4.1820 C   0  0  0  0  0  0  0  0  0  0  0  0
    7.8260   25.3950    3.4700 C   0  0  0  0  0  0  0  0  0  0  0  0
    8.0490   24.1130    4.2270 C   0  0  0  0  0  0  0  0  0  0  0  0
    5.4760   23.9440    4.8860 C   0  0  0  0  0  0  0  0  0  0  0  0
    4.7730   23.1150    5.7930 C   0  0  0  0  0  0  0  0  0  0  0  0
    3.3150   23.0670    6.0910 C   0  0  0  0  0  0  0  0  0  0  0  0
    2.3930   23.6940    5.2590 C   0  0  0  0  0  0  0  0  0  0  0  0
    1.0410   23.6290    5.5580 C   0  0  0  0  0  0  0  0  0  0  0  0
    0.6260   22.9250    6.6890 C   0  0  0  0  0  0  0  0  0  0  0  0
    1.5440   22.2910    7.5220 C   0  0  0  0  0  0  0  0  0  0  0  0
    2.8950   22.3620    7.2200 C   0  0  0  0  0  0  0  0  0  0  0  0
    6.8360   23.6020    4.9560 C   0  0  0  0  0  0  0  0  0  0  0  0
    8.0150   27.4730    4.5940 N   0  0  0  0  0  0  0  0  0  0  0  0
    8.6640   28.5480    5.3210 C   0  0  0  0  0  0  0  0  0  0  0  0
    7.8500   28.8630    6.5330 C   0  0  0  0  0  0  0  0  0  0  0  0
    6.6730   28.5230    6.5970 O   0  0  0  0  0  0  0  0  0  0  0  0
    8.4910   29.7930    4.4610 C   0  0  0  0  0  0  0  0  0  0  0  0
    9.3250   29.8280    3.1910 C   0  0  0  0  0  0  0  0  0  0  0  0
    9.1330   31.2230    2.6470 C   0  0  0  0  0  0  0  0  0  0  0  0
    8.3640   31.3850    1.6730 O   0  0  0  0  0  0  0  0  0  0  0  0
    9.7360   32.1640    3.2120 O   0  0  0  0  0  0  0  0  0  0  0  0
    8.4530   29.5660    7.4880 N   0  0  0  0  0  0  0  0  0  0  0  0
    7.6960   29.9370    8.6710 C   0  0  0  0  0  0  0  0  0  0  0  0
    6.7240   31.0410    8.3400 C   0  0  0  0  0  0  0  0  0  0  0  0
    5.6800   31.1710    8.9630 O   0  0  0  0  0  0  0  0  0  0  0  0
    8.7430   30.4620    9.6410 C   0  0  0  0  0  0  0  0  0  0  0  0
    9.1500   29.3750   10.6210 C   0  0  0  0  0  0  0  0  0  0  0  0
   10.1000   29.9660   11.6400 C   0  0  0  0  0  0  0  0  0  0  0  0
   10.3700   31.1930   11.5930 O   0  0  0  0  0  0  0  0  0  0  0  0
   10.5840   29.1950   12.5010 O   0  0  0  0  0  0  0  0  0  0  0  0
    7.0430   31.8180    7.3980 N   0  0  0  0  0  0  0  0  0  0  0  0
  4  1  2  0
  3  2  1  0
  8  2  2  0
 15  3  1  0
  5  4  1  0
 16  4  1  0
  6  5  1  0
 15  6  1  0
  8  7  1  0
 15  7  2  0
  9  8  1  0
 10  9  2  0
 14  9  1  0
 11 10  1  0
 12 11  2  0
 13 12  1  0
 14 13  2  0
 17 16  1  0
 18 17  1  0
 20 17  1  0
 19 18  2  0
 25 18  1  0
 21 20  1  0
 22 21  1  0
 23 22  2  0
 24 22  1  0
 26 25  1  0
 27 26  1  0
 29 26  1  0
 28 27  2  0
 34 27  1  0
 30 29  1  0
 31 30  1  0
 32 31  2  0
 33 31  1  0
A    1
O2
A    2
N3
A    3
O5
A    4
C11
A    5
C12
A    6
C13
A    7
C14
A    8
C16
A    9
C21
A   10
C22
A   11
C23
A   12
C24
A   13
C25
A   14
C26
A   15
C27
A   16
N2
A   17
C7
A   18
C6
A   19
O1
A   20
C8
A   21
C9
A   22
C10
A   23
O4E
A   24
O4
A   25
N1
A   26
C2
A   27
C1
A   28
O9
A   29
C3
A   30
C4
A   31
C5
A   32
O8
A   33
O8E
A   34
N9
M  END
>  <Id>  (22) 
3LIR_EEC_A_1

>  <ChainId>  (22) 
A

>  <AsymId>  (22) 
G

>  <SeqNum>  (22) 
1

>  <Name>  (22) 
N-[3-(3-phenylisoxazol-5-yl)propanoyl]-L-alpha-glutamyl-L-alpha-glutamyl-amide

>  <SystematicName>  (22) 
(4S)-5-azanyl-5-oxidanylidene-4-[[(2S)-5-oxidanyl-5-oxidanylidene-2-[3-(3-phenyl-1,2-oxazol-5-yl)propanoylamino]pentanoyl]amino]pentanoic acid

>  <Synonyms>  (22) 


>  <Type>  (22) 
NON-POLYMER

>  <Formula>  (22) 
C22 H26 N4 O8

>  <ObservedFormula>  (22) 
C22 N4 O8

>  <MolecularWeight>  (22) 
474.464

>  <ModifiedDate>  (22) 
2012-09-13

>  <Parent>  (22) 


>  <OneLetterCode>  (22) 


>  <SubcomponentList>  (22) 
0YE GLU GLU NH2

>  <AmbiguousFlag>  (22) 
N

>  <InsertionCode>  (22) 


>  <InstanceId>  (22) 
3LIR_EEC_A_1

>  <ChemCompId>  (22) 
EEC

>  <PdbId>  (22) 
3LIR

>  <ResidueNumber>  (22) 
1

>  <InChI>  (22) 
InChI=1S/C22H26N4O8/c23-21(32)15(7-10-19(28)29)25-22(33)16(8-11-20(30)31)24-18(27)9-6-14-12-17(26-34-14)13-4-2-1-3-5-13/h1-5,12,15-16H,6-11H2,(H2,23,32)(H,24,27)(H,25,33)(H,28,29)(H,30,31)/t15-,16-/m0/s1

>  <InChIKey>  (22) 
LIIRZRQVACDFBI-HOTGVXAUSA-N

>  <SMILES>  (22) 
c1ccc(cc1)c2cc(on2)CCC(=O)N[C@@H](CCC(=O)O)C(=O)N[C@@H](CCC(=O)O)C(=O)N

>  <MissingHeavyAtoms>  (22) 
0

>  <Model>  (22) 
1

>  <AltIds>  (22) 


>  <pKI>  (22) 
6.92

>  <ChemblID>  (22) 
CHEMBL1232489

>  <standardized_canonical_smiles>  (22) 
NC(=O)[C@H](CCC(=O)O)NC(=O)[C@H](CCC(=O)O)NC(=O)CCc1cc(-c2ccccc2)no1

$$$$
3EHX_BDL_A_0
     RDKit          3D

 24 25  0  0  0  0  0  0  0  0999 V2000
   -2.0470   -1.5510   -5.7620 O   0  0  0  0  0  0  0  0  0  0  0  0
   -1.8680   -1.9680   -4.6530 C   0  0  0  0  0  0  0  0  0  0  0  0
   -2.8710   -2.0680   -3.8170 O   0  0  0  0  0  0  0  0  0  0  0  0
   -0.4830   -2.3220   -4.2560 C   0  0  0  0  0  0  0  0  0  0  0  0
   -0.0920   -1.5770   -2.9890 C   0  0  0  0  0  0  0  0  0  0  0  0
    1.3030   -2.0450   -2.5650 C   0  0  0  0  0  0  0  0  0  0  0  0
    2.3790   -0.9590   -2.6380 C   0  0  0  0  0  0  0  0  0  0  0  0
    1.2740   -2.6230   -1.1470 C   0  0  0  0  0  0  0  0  0  0  0  0
   -0.3040   -3.7240   -4.0580 N   0  0  0  0  0  0  0  0  0  0  0  0
   -0.6340   -5.0940   -4.8830 S   0  0  0  0  0  0  0  0  0  0  0  0
    0.4830   -5.3780   -5.7600 O   0  0  0  0  0  0  0  0  0  0  0  0
   -0.7140   -5.9230   -3.7080 O   0  0  0  0  0  0  0  0  0  0  0  0
   -2.0190   -5.3460   -5.6640 C   0  0  0  0  0  0  0  0  0  0  0  0
   -2.0790   -5.3950   -7.0520 C   0  0  0  0  0  0  0  0  0  0  0  0
   -3.2650   -5.7050   -7.7020 C   0  0  0  0  0  0  0  0  0  0  0  0
   -3.1590   -5.6180   -4.9190 C   0  0  0  0  0  0  0  0  0  0  0  0
   -4.3560   -5.8960   -5.5740 C   0  0  0  0  0  0  0  0  0  0  0  0
   -4.4270   -5.9370   -6.9690 C   0  0  0  0  0  0  0  0  0  0  0  0
   -5.6910   -6.3160   -7.6470 C   0  0  0  0  0  0  0  0  0  0  0  0
   -6.8140   -6.6450   -6.8800 C   0  0  0  0  0  0  0  0  0  0  0  0
   -7.9830   -7.0450   -7.4940 C   0  0  0  0  0  0  0  0  0  0  0  0
   -8.0280   -7.1810   -8.8820 C   0  0  0  0  0  0  0  0  0  0  0  0
   -6.9100   -6.9040   -9.6560 C   0  0  0  0  0  0  0  0  0  0  0  0
   -5.7460   -6.4950   -9.0290 C   0  0  0  0  0  0  0  0  0  0  0  0
  2  1  2  0
  3  2  1  0
  4  2  1  0
  5  4  1  0
  9  4  1  0
  6  5  1  0
  7  6  1  0
  8  6  1  0
 10  9  1  0
 11 10  2  0
 12 10  2  0
 13 10  1  0
 14 13  2  0
 16 13  1  0
 15 14  1  0
 18 15  2  0
 17 16  2  0
 18 17  1  0
 19 18  1  0
 20 19  2  0
 24 19  1  0
 21 20  1  0
 22 21  2  0
 23 22  1  0
 24 23  2  0
A    1
O4
A    2
C15
A    3
O3
A    4
C17
A    5
C16
A    6
C14
A    7
C18
A    8
C13
A    9
N1
A   10
S1
A   11
O1
A   12
O2
A   13
C7
A   14
C5
A   15
C3
A   16
C6
A   17
C4
A   18
C1
A   19
C2
A   20
C9
A   21
C12
A   22
C11
A   23
C10
A   24
C8
M  END
>  <Id>  (23) 
3EHX_BDL_A_0

>  <ChainId>  (23) 
A

>  <AsymId>  (23) 
G

>  <SeqNum>  (23) 
0

>  <Name>  (23) 
N-(biphenyl-4-ylsulfonyl)-D-leucine

>  <SystematicName>  (23) 
(2R)-4-methyl-2-[(4-phenylphenyl)sulfonylamino]pentanoic acid

>  <Synonyms>  (23) 
(R)-2-(biphenyl-4-ylsulfonamido)-4-methylpentanoic acid

>  <Type>  (23) 
NON-POLYMER

>  <Formula>  (23) 
C18 H21 N O4 S

>  <ObservedFormula>  (23) 
C18 S N O4

>  <MolecularWeight>  (23) 
347.429

>  <ModifiedDate>  (23) 
2011-06-04

>  <Parent>  (23) 


>  <OneLetterCode>  (23) 


>  <SubcomponentList>  (23) 


>  <AmbiguousFlag>  (23) 
N

>  <InsertionCode>  (23) 


>  <InstanceId>  (23) 
3EHX_BDL_A_0

>  <ChemCompId>  (23) 
BDL

>  <PdbId>  (23) 
3EHX

>  <ResidueNumber>  (23) 
0

>  <InChI>  (23) 
InChI=1S/C18H21NO4S/c1-13(2)12-17(18(20)21)19-24(22,23)16-10-8-15(9-11-16)14-6-4-3-5-7-14/h3-11,13,17,19H,12H2,1-2H3,(H,20,21)/t17-/m1/s1

>  <InChIKey>  (23) 
FBSVJQQVDISETN-QGZVFWFLSA-N

>  <SMILES>  (23) 
CC(C)C[C@H](C(=O)O)NS(=O)(=O)c1ccc(cc1)c2ccccc2

>  <MissingHeavyAtoms>  (23) 
0

>  <Model>  (23) 
1

>  <AltIds>  (23) 


>  <pKI>  (23) 
7.6

>  <ChemblID>  (23) 
-

>  <standardized_canonical_smiles>  (23) 
CC(C)C[C@@H](NS(=O)(=O)c1ccc(-c2ccccc2)cc1)C(=O)O

$$$$
3EHY_TBL_A_1
     RDKit          3D

 17 17  0  0  0  0  0  0  0  0999 V2000
   -1.0810   -6.6970   -4.0090 O   0  0  0  0  0  0  0  0  0  0  0  0
   -0.8610   -5.5850   -4.8790 S   0  0  0  0  0  0  0  0  0  0  0  0
    0.3440   -5.6660   -5.6630 O   0  0  0  0  0  0  0  0  0  0  0  0
   -0.8580   -4.2810   -3.9320 N   0  0  0  0  0  0  0  0  0  0  0  0
   -0.5330   -2.9680   -4.5110 C   0  0  0  0  0  0  0  0  0  0  0  0
    0.2790   -2.1440   -3.5090 C   0  0  0  0  0  0  0  0  0  0  0  0
   -1.7860   -2.2190   -4.8830 C   0  0  0  0  0  0  0  0  0  0  0  0
   -1.8580   -1.5180   -5.8730 O   0  0  0  0  0  0  0  0  0  0  0  0
   -2.8600   -2.3300   -4.1020 O   0  0  0  0  0  0  0  0  0  0  0  0
   -2.0710   -5.6230   -5.9680 C   0  0  0  0  0  0  0  0  0  0  0  0
   -3.3590   -5.9330   -5.5370 C   0  0  0  0  0  0  0  0  0  0  0  0
   -4.4230   -6.0050   -6.4540 C   0  0  0  0  0  0  0  0  0  0  0  0
   -4.2010   -5.8490   -7.8280 C   0  0  0  0  0  0  0  0  0  0  0  0
   -2.9360   -5.5380   -8.2930 C   0  0  0  0  0  0  0  0  0  0  0  0
   -1.8730   -5.4200   -7.3570 C   0  0  0  0  0  0  0  0  0  0  0  0
   -5.2910   -5.9330   -8.6790 O   0  0  0  0  0  0  0  0  0  0  0  0
   -5.3380   -6.7060   -9.8690 C   0  0  0  0  0  0  0  0  0  0  0  0
  2  1  2  0
  3  2  2  0
  4  2  1  0
 10  2  1  0
  5  4  1  0
  6  5  1  0
  7  5  1  0
  8  7  2  0
  9  7  1  0
 11 10  2  0
 15 10  1  0
 12 11  1  0
 13 12  2  0
 14 13  1  0
 16 13  1  0
 15 14  2  0
 17 16  1  0
A    1
O4
A    2
S1
A    3
O3
A    4
N1
A    5
C2
A    6
C10
A    7
C1
A    8
O2
A    9
O1
A   10
C3
A   11
C4
A   12
C5
A   13
C6
A   14
C8
A   15
C9
A   16
O5
A   17
C7
M  END
>  <Id>  (24) 
3EHY_TBL_A_1

>  <ChainId>  (24) 
A

>  <AsymId>  (24) 
G

>  <SeqNum>  (24) 
1

>  <Name>  (24) 
N-[(4-methoxyphenyl)sulfonyl]-D-alanine

>  <SystematicName>  (24) 
(2R)-2-[(4-methoxyphenyl)sulfonylamino]propanoic acid

>  <Synonyms>  (24) 
(R)-2-(4-methoxyphenylsulfonamido)propanoic acid

>  <Type>  (24) 
NON-POLYMER

>  <Formula>  (24) 
C10 H13 N O5 S

>  <ObservedFormula>  (24) 
S C10 N O5

>  <MolecularWeight>  (24) 
259.279

>  <ModifiedDate>  (24) 
2011-06-04

>  <Parent>  (24) 


>  <OneLetterCode>  (24) 


>  <SubcomponentList>  (24) 


>  <AmbiguousFlag>  (24) 
N

>  <InsertionCode>  (24) 


>  <InstanceId>  (24) 
3EHY_TBL_A_1

>  <ChemCompId>  (24) 
TBL

>  <PdbId>  (24) 
3EHY

>  <ResidueNumber>  (24) 
1

>  <InChI>  (24) 
InChI=1S/C10H13NO5S/c1-7(10(12)13)11-17(14,15)9-5-3-8(16-2)4-6-9/h3-7,11H,1-2H3,(H,12,13)/t7-/m1/s1

>  <InChIKey>  (24) 
XTCIPBHRVYICGT-SSDOTTSWSA-N

>  <SMILES>  (24) 
C[C@H](C(=O)O)NS(=O)(=O)c1ccc(cc1)OC

>  <MissingHeavyAtoms>  (24) 
0

>  <Model>  (24) 
1

>  <AltIds>  (24) 


>  <pKI>  (24) 
5.85

>  <ChemblID>  (24) 
-

>  <standardized_canonical_smiles>  (24) 
COc1ccc(S(=O)(=O)N[C@H](C)C(=O)O)cc1

$$$$
4EFS_E37_A_306
     RDKit          3D

 29 31  0  0  0  0  0  0  0  0999 V2000
  -10.8930  -29.3390    1.7520 O   0  0  0  0  0  0  0  0  0  0  0  0
  -10.2010  -28.5480    2.3380 C   0  0  0  0  0  0  0  0  0  0  0  0
   -9.3960  -29.0360    3.4060 N   0  0  0  0  0  0  0  0  0  0  0  0
  -10.1860  -27.0720    1.9680 C   0  0  0  0  0  0  0  0  0  0  0  0
  -10.2370  -26.8430    0.4900 C   0  0  0  0  0  0  0  0  0  0  0  0
  -10.3330  -25.3640    0.2220 C   0  0  0  0  0  0  0  0  0  0  0  0
   -8.9860  -24.6910    0.1580 C   0  0  0  0  0  0  0  0  0  0  0  0
   -9.0960  -23.4750    0.3600 O   0  0  0  0  0  0  0  0  0  0  0  0
   -8.1030  -25.5080   -0.0700 O   0  0  0  0  0  0  0  0  0  0  0  0
   -8.9920  -26.4170    2.4530 N   0  0  0  0  0  0  0  0  0  0  0  0
   -9.0820  -25.6230    3.6290 C   0  0  0  0  0  0  0  0  0  0  0  0
  -10.1410  -25.5560    4.1930 O   0  0  0  0  0  0  0  0  0  0  0  0
   -7.8600  -24.9570    4.2050 C   0  0  0  0  0  0  0  0  0  0  0  0
   -6.5880  -25.3740    3.8490 C   0  0  0  0  0  0  0  0  0  0  0  0
   -5.4760  -24.7720    4.4290 C   0  0  0  0  0  0  0  0  0  0  0  0
   -5.6330  -23.7420    5.3350 C   0  0  0  0  0  0  0  0  0  0  0  0
   -6.9000  -23.3640    5.7280 C   0  0  0  0  0  0  0  0  0  0  0  0
   -8.0050  -23.9600    5.1470 C   0  0  0  0  0  0  0  0  0  0  0  0
   -4.5370  -23.2040    5.9760 C   0  0  0  0  0  0  0  0  0  0  0  0
   -3.2180  -23.6510    5.7820 C   0  0  0  0  0  0  0  0  0  0  0  0
   -2.2160  -22.8650    6.8080 C   0  0  0  0  0  0  0  0  0  0  0  0
   -2.9610  -22.0110    7.6330 C   0  0  0  0  0  0  0  0  0  0  0  0
   -4.5670  -22.1230    7.2220 S   0  0  0  0  0  0  0  0  0  0  0  0
   -0.7210  -23.0830    6.8700 C   0  0  0  0  0  0  0  0  0  0  0  0
    0.0350  -22.2320    7.5940 C   0  0  0  0  0  0  0  0  0  0  0  0
    1.4210  -22.4890    7.6450 C   0  0  0  0  0  0  0  0  0  0  0  0
    1.9430  -23.6260    6.9480 C   0  0  0  0  0  0  0  0  0  0  0  0
    1.0580  -24.4700    6.2400 C   0  0  0  0  0  0  0  0  0  0  0  0
   -0.2490  -24.1330    6.2550 C   0  0  0  0  0  0  0  0  0  0  0  0
  2  1  2  0
  3  2  1  0
  4  2  1  0
  5  4  1  0
 10  4  1  0
  6  5  1  0
  7  6  1  0
  8  7  1  0
  9  7  2  0
 11 10  1  0
 12 11  2  0
 13 11  1  0
 14 13  2  0
 18 13  1  0
 15 14  1  0
 16 15  2  0
 17 16  1  0
 19 16  1  0
 18 17  2  0
 20 19  2  0
 23 19  1  0
 21 20  1  0
 22 21  2  0
 24 21  1  0
 23 22  1  0
 25 24  2  0
 29 24  1  0
 26 25  1  0
 27 26  2  0
 28 27  1  0
 29 28  2  0
A    1
O1
A    2
C6
A    3
N1
A    4
C7
A    5
C8
A    6
C9
A    7
C10
A    8
O4E
A    9
O4
A   10
N2
A   11
C11
A   12
O2
A   13
C27
A   14
C28
A   15
C15
A   16
C16
A   17
C17
A   18
C14
A   19
C18
A   20
C19
A   21
C20
A   22
C29
A   23
S7
A   24
C21
A   25
C22
A   26
C23
A   27
C24
A   28
C25
A   29
C26
M  END
>  <Id>  (25) 
4EFS_E37_A_306

>  <ChainId>  (25) 
A

>  <AsymId>  (25) 
G

>  <SeqNum>  (25) 
306

>  <Name>  (25) 
N~2~-[4-(4-phenylthiophen-2-yl)benzoyl]-L-alpha-glutamine

>  <SystematicName>  (25) 
(4S)-5-azanyl-5-oxidanylidene-4-[[4-(4-phenylthiophen-2-yl)phenyl]carbonylamino]pentanoic acid

>  <Synonyms>  (25) 


>  <Type>  (25) 
NON-POLYMER

>  <Formula>  (25) 
C22 H20 N2 O4 S

>  <ObservedFormula>  (25) 
C22 S N2 O4

>  <MolecularWeight>  (25) 
408.47

>  <ModifiedDate>  (25) 
2012-06-15

>  <Parent>  (25) 


>  <OneLetterCode>  (25) 


>  <SubcomponentList>  (25) 


>  <AmbiguousFlag>  (25) 
N

>  <InsertionCode>  (25) 


>  <InstanceId>  (25) 
4EFS_E37_A_306

>  <ChemCompId>  (25) 
E37

>  <PdbId>  (25) 
4EFS

>  <ResidueNumber>  (25) 
306

>  <InChI>  (25) 
InChI=1S/C22H20N2O4S/c23-21(27)18(10-11-20(25)26)24-22(28)16-8-6-15(7-9-16)19-12-17(13-29-19)14-4-2-1-3-5-14/h1-9,12-13,18H,10-11H2,(H2,23,27)(H,24,28)(H,25,26)/t18-/m0/s1

>  <InChIKey>  (25) 
ADDJDJQFPKUMAF-SFHVURJKSA-N

>  <SMILES>  (25) 
c1ccc(cc1)c2cc(sc2)c3ccc(cc3)C(=O)N[C@@H](CCC(=O)O)C(=O)N

>  <MissingHeavyAtoms>  (25) 
0

>  <Model>  (25) 
1

>  <AltIds>  (25) 


>  <pKI>  (25) 
8.6

>  <ChemblID>  (25) 
-

>  <standardized_canonical_smiles>  (25) 
NC(=O)[C@H](CCC(=O)O)NC(=O)c1ccc(-c2cc(-c3ccccc3)cs2)cc1

$$$$
3LJG_EEF_A_302
     RDKit          3D

 35 36  0  0  0  0  0  0  0  0999 V2000
    7.9420   25.0430    3.4330 C   0  0  0  0  0  0  0  0  0  0  0  0
    8.7290   26.1390    4.1800 C   0  0  0  0  0  0  0  0  0  0  0  0
    9.8180   25.8970    4.6390 O   0  0  0  0  0  0  0  0  0  0  0  0
    7.7820   23.7610    4.2610 C   0  0  0  0  0  0  0  0  0  0  0  0
    6.3370   22.5600    5.9300 C   0  0  0  0  0  0  0  0  0  0  0  0
    5.0750   22.2530    6.5750 C   0  0  0  0  0  0  0  0  0  0  0  0
    3.8940   23.0050    6.1670 C   0  0  0  0  0  0  0  0  0  0  0  0
    6.4190   23.5300    4.9520 C   0  0  0  0  0  0  0  0  0  0  0  0
    2.5640   22.6820    6.8460 C   0  0  0  0  0  0  0  0  0  0  0  0
    2.5690   22.2440    8.2720 C   0  0  0  0  0  0  0  0  0  0  0  0
    1.3780   21.9310    8.9080 C   0  0  0  0  0  0  0  0  0  0  0  0
    0.1820   22.4620    6.8240 C   0  0  0  0  0  0  0  0  0  0  0  0
    1.4210   22.7860    6.1600 C   0  0  0  0  0  0  0  0  0  0  0  0
    0.1700   22.0300    8.1860 C   0  0  0  0  0  0  0  0  0  0  0  0
    3.9640   24.0160    5.1590 C   0  0  0  0  0  0  0  0  0  0  0  0
    5.1970   24.3120    4.5290 C   0  0  0  0  0  0  0  0  0  0  0  0
    8.0550   27.4190    4.3650 N   0  0  0  0  0  0  0  0  0  0  0  0
    8.7210   28.4730    5.1460 C   0  0  0  0  0  0  0  0  0  0  0  0
    8.0290   28.5750    6.5020 C   0  0  0  0  0  0  0  0  0  0  0  0
    6.8450   28.4120    6.5760 O   0  0  0  0  0  0  0  0  0  0  0  0
    8.6280   29.8440    4.4420 C   0  0  0  0  0  0  0  0  0  0  0  0
    9.4400   30.0590    3.1680 C   0  0  0  0  0  0  0  0  0  0  0  0
    9.1680   31.3680    2.4320 C   0  0  0  0  0  0  0  0  0  0  0  0
    8.3660   31.4060    1.5660 O   0  0  0  0  0  0  0  0  0  0  0  0
   10.1570   32.3480    2.4460 O   0  0  0  0  0  0  0  0  0  0  0  0
    8.7600   29.1750    7.5970 N   0  0  0  0  0  0  0  0  0  0  0  0
    8.0180   29.4300    8.8140 C   0  0  0  0  0  0  0  0  0  0  0  0
    6.9460   30.4780    8.5790 C   0  0  0  0  0  0  0  0  0  0  0  0
    7.1580   31.4130    7.8790 O   0  0  0  0  0  0  0  0  0  0  0  0
    8.8720   29.7710   10.0400 C   0  0  0  0  0  0  0  0  0  0  0  0
    8.7420   28.8350   11.2630 C   0  0  0  0  0  0  0  0  0  0  0  0
    7.5190   28.9340   12.1930 C   0  0  0  0  0  0  0  0  0  0  0  0
    6.7990   29.8720   12.1250 O   0  0  0  0  0  0  0  0  0  0  0  0
    7.4070   28.0670   13.3020 O   0  0  0  0  0  0  0  0  0  0  0  0
    5.6970   30.3080    9.2920 N   0  0  0  0  0  0  0  0  0  0  0  0
  2  1  1  0
  4  1  1  0
  3  2  2  0
 17  2  1  0
  8  4  1  0
  6  5  2  0
  8  5  1  0
  7  6  1  0
  9  7  1  0
 15  7  2  0
 16  8  2  0
 10  9  2  0
 13  9  1  0
 11 10  1  0
 14 11  2  0
 13 12  2  0
 14 12  1  0
 16 15  1  0
 18 17  1  0
 19 18  1  0
 21 18  1  0
 20 19  2  0
 26 19  1  0
 22 21  1  0
 23 22  1  0
 24 23  2  0
 25 23  1  0
 27 26  1  0
 28 27  1  0
 30 27  1  0
 29 28  2  0
 35 28  1  0
 31 30  1  0
 32 31  1  0
 33 32  2  0
 34 32  1  0
A    1
C1
A    2
C2
A    3
O2
A    4
C14
A    5
C15
A    6
C16
A    7
C17
A    8
C18
A    9
C19
A   10
C20
A   11
C21
A   12
C22
A   13
C23
A   14
C27
A   15
C30
A   16
C31
A   17
N1
A   18
C3
A   19
C9
A   20
O1
A   21
C4
A   22
C5
A   23
C8
A   24
O7
A   25
O6
A   26
N2
A   27
C10
A   28
C13
A   29
O5
A   30
C11
A   31
C12
A   32
C32
A   33
O34
A   34
O33
A   35
N3
M  END
>  <Id>  (26) 
3LJG_EEF_A_302

>  <ChainId>  (26) 
A

>  <AsymId>  (26) 
H

>  <SeqNum>  (26) 
302

>  <Name>  (26) 
N-(3-biphenyl-4-ylpropanoyl)-L-alpha-glutamyl-L-alpha-glutamyl-amide

>  <SystematicName>  (26) 
(4S)-5-azanyl-5-oxidanylidene-4-[[(2S)-5-oxidanyl-5-oxidanylidene-2-[3-(4-phenylphenyl)propanoylamino]pentanoyl]amino]pentanoic acid

>  <Synonyms>  (26) 


>  <Type>  (26) 
peptide-like

>  <Formula>  (26) 
C25 H29 N3 O7

>  <ObservedFormula>  (26) 
C25 N3 O7

>  <MolecularWeight>  (26) 
483.514

>  <ModifiedDate>  (26) 
2015-04-02

>  <Parent>  (26) 


>  <OneLetterCode>  (26) 


>  <SubcomponentList>  (26) 
0YF GLU GLU NH2

>  <AmbiguousFlag>  (26) 
N

>  <InsertionCode>  (26) 


>  <InstanceId>  (26) 
3LJG_EEF_A_302

>  <ChemCompId>  (26) 
EEF

>  <PdbId>  (26) 
3LJG

>  <ResidueNumber>  (26) 
302

>  <InChI>  (26) 
InChI=1S/C25H29N3O7/c26-24(34)19(11-14-22(30)31)28-25(35)20(12-15-23(32)33)27-21(29)13-8-16-6-9-18(10-7-16)17-4-2-1-3-5-17/h1-7,9-10,19-20H,8,11-15H2,(H2,26,34)(H,27,29)(H,28,35)(H,30,31)(H,32,33)/t19-,20-/m0/s1

>  <InChIKey>  (26) 
KGICPKKIUBLFER-PMACEKPBSA-N

>  <SMILES>  (26) 
c1ccc(cc1)c2ccc(cc2)CCC(=O)N[C@@H](CCC(=O)O)C(=O)N[C@@H](CCC(=O)O)C(=O)N

>  <MissingHeavyAtoms>  (26) 
0

>  <Model>  (26) 
1

>  <AltIds>  (26) 


>  <pKI>  (26) 
7.73

>  <ChemblID>  (26) 
-

>  <standardized_canonical_smiles>  (26) 
NC(=O)[C@H](CCC(=O)O)NC(=O)[C@H](CCC(=O)O)NC(=O)CCc1ccc(-c2ccccc2)cc1

$$$$
