1W0Y_771_H_1258
     RDKit          3D

 32 34  0  0  0  0  0  0  0  0999 V2000
   29.8940    6.6810   15.0960 C   0  0  0  0  0  0  0  0  0  0  0  0
   29.3940    7.6860   15.8290 N   0  0  0  0  0  0  0  0  0  0  0  0
   30.2260    5.5920   15.8250 N   0  0  0  0  0  0  0  0  0  0  0  0
   30.2090    6.9370   13.6710 C   0  0  0  0  0  0  0  0  0  0  0  0
   29.4770    7.9530   12.9940 C   0  0  0  0  0  0  0  0  0  0  0  0
   29.6280    8.1420   11.6330 C   0  0  0  0  0  0  0  0  0  0  0  0
   30.5090    7.3190   10.9230 C   0  0  0  0  0  0  0  0  0  0  0  0
   30.7790    7.5770    9.5560 N   0  0  0  0  0  0  0  0  0  0  0  0
   31.7020    6.6900    8.7660 C   0  0  0  0  0  0  0  0  0  0  0  0
   38.1770    7.7270    9.5410 C   0  0  0  0  0  0  0  0  0  0  0  0
   38.4750    6.9510   10.7710 C   0  0  0  0  0  0  0  0  0  0  0  0
   37.7260    7.0730   11.9080 C   0  0  0  0  0  0  0  0  0  0  0  0
   38.0040    6.3000   13.0250 C   0  0  0  0  0  0  0  0  0  0  0  0
   39.0420    5.3970   13.0020 C   0  0  0  0  0  0  0  0  0  0  0  0
   39.5050    6.0500   10.7570 C   0  0  0  0  0  0  0  0  0  0  0  0
   39.7920    5.2820   11.8540 C   0  0  0  0  0  0  0  0  0  0  0  0
   33.1490    7.1280    8.8990 C   0  0  0  0  0  0  0  0  0  0  0  0
   35.4970    6.6340    9.4050 C   0  0  0  0  0  0  0  0  0  0  0  0
   34.2010    6.2070    9.1790 C   0  0  0  0  0  0  0  0  0  0  0  0
   33.9440    4.8440    9.3400 N   0  0  0  0  0  0  0  0  0  0  0  0
   33.7020    3.8520    7.9700 S   0  0  0  0  0  0  0  0  0  0  0  0
   35.3440    3.5370    7.3820 C   0  0  0  0  0  0  0  0  0  0  0  0
   32.9530    4.5850    6.9730 O   0  0  0  0  0  0  0  0  0  0  0  0
   33.1670    2.5920    8.3100 O   0  0  0  0  0  0  0  0  0  0  0  0
   35.7830    8.0010    9.3180 C   0  0  0  0  0  0  0  0  0  0  0  0
   37.0110    8.5270    9.6310 O   0  0  0  0  0  0  0  0  0  0  0  0
   33.4640    8.5070    8.7960 C   0  0  0  0  0  0  0  0  0  0  0  0
   34.7970    8.9390    8.9920 C   0  0  0  0  0  0  0  0  0  0  0  0
   35.2390   10.2440    8.7780 O   0  0  0  0  0  0  0  0  0  0  0  0
   34.3570   11.2760    8.3370 C   0  0  0  0  0  0  0  0  0  0  0  0
   31.2490    6.3180   11.5960 C   0  0  0  0  0  0  0  0  0  0  0  0
   31.1120    6.1260   12.9430 C   0  0  0  0  0  0  0  0  0  0  0  0
  2  1  2  0
  3  1  1  0
  4  1  1  0
  5  4  2  0
 32  4  1  0
  6  5  1  0
  7  6  2  0
  8  7  1  0
 31  7  1  0
  9  8  1  0
 17  9  1  0
 11 10  1  0
 26 10  1  0
 12 11  2  0
 15 11  1  0
 13 12  1  0
 14 13  2  0
 16 14  1  0
 16 15  2  0
 19 17  1  0
 27 17  2  0
 19 18  2  0
 25 18  1  0
 20 19  1  0
 21 20  1  0
 22 21  1  0
 23 21  2  0
 24 21  2  0
 26 25  1  0
 28 25  2  0
 28 27  1  0
 29 28  1  0
 30 29  1  0
 32 31  2  0
A    1
C1
A    2
N1
A    3
N2
A    4
C2
A    5
C3
A    6
C4
A    7
C5
A    8
N3
A    9
C8
A   10
C15
A   11
C16
A   12
C17
A   13
C18
A   14
C19
A   15
C21
A   16
C20
A   17
C9
A   18
C13
A   19
C14
A   20
N4
A   21
S1
A   22
C22
A   23
O5
A   24
O4
A   25
C12
A   26
O3
A   27
C10
A   28
C11
A   29
O2
A   30
C23
A   31
C6
A   32
C7
M  END
>  <Id>  (1) 
1W0Y_771_H_1258

>  <ChainId>  (1) 
H

>  <AsymId>  (1) 
D

>  <SeqNum>  (1) 
1258

>  <Name>  (1) 
4-(4-BENZYLOXY-2-METHANESULFONYLAMINO-5-METHOXY-BENZYLAMINO)-BENZAMIDINE

>  <SystematicName>  (1) 
4-[[5-methoxy-2-(methylsulfonylamino)-4-phenylmethoxy-phenyl]methylamino]benzenecarboximidamide

>  <Synonyms>  (1) 


>  <Type>  (1) 
NON-POLYMER

>  <Formula>  (1) 
C23 H26 N4 O4 S

>  <ObservedFormula>  (1) 
C23 S N4 O4

>  <MolecularWeight>  (1) 
454.542

>  <ModifiedDate>  (1) 
2011-06-04

>  <Parent>  (1) 


>  <OneLetterCode>  (1) 


>  <SubcomponentList>  (1) 


>  <AmbiguousFlag>  (1) 
N

>  <InsertionCode>  (1) 


>  <InstanceId>  (1) 
1W0Y_771_H_1258

>  <ChemCompId>  (1) 
771

>  <PdbId>  (1) 
1W0Y

>  <ResidueNumber>  (1) 
1258

>  <InChI>  (1) 
InChI=1S/C23H26N4O4S/c1-30-21-12-18(14-26-19-10-8-17(9-11-19)23(24)25)20(27-32(2,28)29)13-22(21)31-15-16-6-4-3-5-7-16/h3-13,26-27H,14-15H2,1-2H3,(H3,24,25)

>  <InChIKey>  (1) 
CRFICMUDNBIMKL-UHFFFAOYSA-N

>  <SMILES>  (1) 
COc1cc(c(cc1OCc2ccccc2)NS(=O)(=O)C)CNc3ccc(cc3)C(=N)N

>  <MissingHeavyAtoms>  (1) 
0

>  <Model>  (1) 
1

>  <AltIds>  (1) 


>  <pKI>  (1) 
6.42

>  <ChemblID>  (1) 
CHEMBL180105

>  <standardized_canonical_smiles>  (1) 
COc1cc(CNc2ccc(C(=N)N)cc2)c(NS(C)(=O)=O)cc1OCc1ccccc1

$$$$
1W7X_413_H_1261
     RDKit          3D

 40 43  0  0  0  0  0  0  0  0999 V2000
    9.6510   39.6130   34.6010 O   0  0  0  0  0  0  0  0  0  0  0  0
    9.1900   40.0340   33.5440 C   0  0  0  0  0  0  0  0  0  0  0  0
    7.9250   40.4530   33.4550 N   0  0  0  0  0  0  0  0  0  0  0  0
    7.0610   40.4800   34.6210 C   0  0  0  0  0  0  0  0  0  0  0  0
    7.5880   41.5320   35.5400 C   0  0  0  0  0  0  0  0  0  0  0  0
    8.2140   42.6780   35.0240 C   0  0  0  0  0  0  0  0  0  0  0  0
    8.7230   43.6650   35.8700 C   0  0  0  0  0  0  0  0  0  0  0  0
    8.5870   43.5100   37.2490 C   0  0  0  0  0  0  0  0  0  0  0  0
    7.9750   42.3680   37.7780 C   0  0  0  0  0  0  0  0  0  0  0  0
    7.4770   41.3760   36.9210 C   0  0  0  0  0  0  0  0  0  0  0  0
    5.6730   40.9080   34.2600 C   0  0  0  0  0  0  0  0  0  0  0  0
    5.4660   41.3040   33.0920 O   0  0  0  0  0  0  0  0  0  0  0  0
    4.7950   40.8510   35.1530 O   0  0  0  0  0  0  0  0  0  0  0  0
   10.0100   40.1250   32.2890 C   0  0  0  0  0  0  0  0  0  0  0  0
   11.2010   39.2870   32.3880 N   0  0  0  0  0  0  0  0  0  0  0  0
   11.9270   38.8260   31.3310 C   0  0  0  0  0  0  0  0  0  0  0  0
   11.5210   39.0270   30.0090 C   0  0  0  0  0  0  0  0  0  0  0  0
   12.2880   38.5500   28.9610 C   0  0  0  0  0  0  0  0  0  0  0  0
   13.1440   38.1660   31.5700 C   0  0  0  0  0  0  0  0  0  0  0  0
   13.9330   37.6840   30.5240 C   0  0  0  0  0  0  0  0  0  0  0  0
   13.5020   37.8900   29.2060 C   0  0  0  0  0  0  0  0  0  0  0  0
   14.2900   37.4000   28.0320 C   0  0  0  0  0  0  0  0  0  0  0  0
   15.4680   36.7800   28.1850 N   0  0  0  0  0  0  0  0  0  0  0  0
   13.7730   37.6040   26.8100 N   0  0  0  0  0  0  0  0  0  0  0  0
   10.3530   41.5620   32.0720 C   0  0  0  0  0  0  0  0  0  0  0  0
   11.2400   42.2450   32.9100 C   0  0  0  0  0  0  0  0  0  0  0  0
   11.5280   43.5900   32.7070 C   0  0  0  0  0  0  0  0  0  0  0  0
   12.4170   44.2590   33.5190 O   0  0  0  0  0  0  0  0  0  0  0  0
   12.9060   43.6620   34.7290 C   0  0  0  0  0  0  0  0  0  0  0  0
   10.9350   44.2740   31.6400 C   0  0  0  0  0  0  0  0  0  0  0  0
   10.0450   43.5980   30.8000 C   0  0  0  0  0  0  0  0  0  0  0  0
    9.7470   42.2550   31.0060 C   0  0  0  0  0  0  0  0  0  0  0  0
   11.2460   45.6070   31.4430 O   0  0  0  0  0  0  0  0  0  0  0  0
   10.4420   46.4910   30.6590 C   0  0  0  0  0  0  0  0  0  0  0  0
   10.7150   46.3240   29.1780 C   0  0  0  0  0  0  0  0  0  0  0  0
   11.7710   45.5420   28.7070 C   0  0  0  0  0  0  0  0  0  0  0  0
   11.9920   45.3980   27.3370 C   0  0  0  0  0  0  0  0  0  0  0  0
   11.1680   46.0450   26.4160 C   0  0  0  0  0  0  0  0  0  0  0  0
   10.1120   46.8290   26.8800 C   0  0  0  0  0  0  0  0  0  0  0  0
    9.8880   46.9780   28.2510 C   0  0  0  0  0  0  0  0  0  0  0  0
  2  1  2  0
  3  2  1  0
 14  2  1  0
  4  3  1  0
  5  4  1  0
 11  4  1  0
  6  5  2  0
 10  5  1  0
  7  6  1  0
  8  7  2  0
  9  8  1  0
 10  9  2  0
 12 11  2  0
 13 11  1  0
 15 14  1  0
 25 14  1  0
 16 15  1  0
 17 16  2  0
 19 16  1  0
 18 17  1  0
 21 18  2  0
 20 19  2  0
 21 20  1  0
 22 21  1  0
 23 22  2  0
 24 22  1  0
 26 25  2  0
 32 25  1  0
 27 26  1  0
 28 27  1  0
 30 27  2  0
 29 28  1  0
 31 30  1  0
 33 30  1  0
 32 31  2  0
 34 33  1  0
 35 34  1  0
 36 35  2  0
 40 35  1  0
 37 36  1  0
 38 37  2  0
 39 38  1  0
 40 39  2  0
A    1
O31
A    2
C31
A    3
N4
A    4
C23
A    5
C24
A    6
C25
A    7
C26
A    8
C27
A    9
C28
A   10
C29
A   11
C30
A   12
O30
A   13
O40
A   14
C8
A   15
N3
A   16
C5
A   17
C4
A   18
C3
A   19
C6
A   20
C7
A   21
C2
A   22
C1
A   23
N2
A   24
N1
A   25
C9
A   26
C14
A   27
C13
A   28
O3
A   29
C15
A   30
C12
A   31
C11
A   32
C10
A   33
O4
A   34
C16
A   35
C17
A   36
C22
A   37
C21
A   38
C20
A   39
C19
A   40
C18
M  END
>  <Id>  (2) 
1W7X_413_H_1261

>  <ChainId>  (2) 
H

>  <AsymId>  (2) 
F

>  <SeqNum>  (2) 
1261

>  <Name>  (2) 
(S)-[(R)-2-(4-BENZYLOXY-3-METHOXY-PHENYL)-2-(4-CARBAMIMIDOYL-PHENYLAMINO)-ACETYLAMINO]-PHENYL-ACETIC ACID

>  <SystematicName>  (2) 
(2S)-2-[[(2R)-2-[(4-carbamimidoylphenyl)amino]-2-(3-methoxy-4-phenylmethoxy-phenyl)ethanoyl]amino]-2-phenyl-ethanoic acid

>  <Synonyms>  (2) 


>  <Type>  (2) 
NON-POLYMER

>  <Formula>  (2) 
C31 H30 N4 O5

>  <ObservedFormula>  (2) 
C31 N4 O5

>  <MolecularWeight>  (2) 
538.594

>  <ModifiedDate>  (2) 
2011-06-04

>  <Parent>  (2) 


>  <OneLetterCode>  (2) 


>  <SubcomponentList>  (2) 


>  <AmbiguousFlag>  (2) 
N

>  <InsertionCode>  (2) 


>  <InstanceId>  (2) 
1W7X_413_H_1261

>  <ChemCompId>  (2) 
413

>  <PdbId>  (2) 
1W7X

>  <ResidueNumber>  (2) 
1261

>  <InChI>  (2) 
InChI=1S/C31H30N4O5/c1-39-26-18-23(14-17-25(26)40-19-20-8-4-2-5-9-20)27(34-24-15-12-22(13-16-24)29(32)33)30(36)35-28(31(37)38)21-10-6-3-7-11-21/h2-18,27-28,34H,19H2,1H3,(H3,32,33)(H,35,36)(H,37,38)/t27-,28+/m1/s1

>  <InChIKey>  (2) 
WGEGXJPYFSZDMU-IZLXSDGUSA-N

>  <SMILES>  (2) 
COc1cc(ccc1OCc2ccccc2)[C@H](C(=O)N[C@@H](c3ccccc3)C(=O)O)Nc4ccc(cc4)C(=N)N

>  <MissingHeavyAtoms>  (2) 
0

>  <Model>  (2) 
1

>  <AltIds>  (2) 


>  <pKI>  (2) 
8.4

>  <ChemblID>  (2) 
CHEMBL178616

>  <standardized_canonical_smiles>  (2) 
COc1cc([C@@H](Nc2ccc(C(=N)N)cc2)C(=O)N[C@H](C(=O)O)c2ccccc2)ccc1OCc1ccccc1

$$$$
1W8B_413_H_1259
     RDKit          3D

 40 43  0  0  0  0  0  0  0  0999 V2000
   12.9810   35.8260   52.8520 O   0  0  0  0  0  0  0  0  0  0  0  0
   13.8740   35.3180   52.1960 C   0  0  0  0  0  0  0  0  0  0  0  0
   14.4910   35.9740   51.2210 N   0  0  0  0  0  0  0  0  0  0  0  0
   14.1280   37.3410   50.9030 C   0  0  0  0  0  0  0  0  0  0  0  0
   14.8100   38.1940   51.9070 C   0  0  0  0  0  0  0  0  0  0  0  0
   16.1250   37.9210   52.2870 C   0  0  0  0  0  0  0  0  0  0  0  0
   16.7630   38.7130   53.2370 C   0  0  0  0  0  0  0  0  0  0  0  0
   16.0800   39.7780   53.8190 C   0  0  0  0  0  0  0  0  0  0  0  0
   14.7630   40.0530   53.4510 C   0  0  0  0  0  0  0  0  0  0  0  0
   14.1270   39.2590   52.4950 C   0  0  0  0  0  0  0  0  0  0  0  0
   14.4780   37.7450   49.4970 C   0  0  0  0  0  0  0  0  0  0  0  0
   15.4040   37.1420   48.9070 O   0  0  0  0  0  0  0  0  0  0  0  0
   13.8160   38.6740   48.9660 O   0  0  0  0  0  0  0  0  0  0  0  0
   14.3710   33.9180   52.4600 C   0  0  0  0  0  0  0  0  0  0  0  0
   13.5170   33.1250   53.3330 N   0  0  0  0  0  0  0  0  0  0  0  0
   13.5470   31.7640   53.3810 C   0  0  0  0  0  0  0  0  0  0  0  0
   14.2760   30.9970   52.4680 C   0  0  0  0  0  0  0  0  0  0  0  0
   14.2880   29.6050   52.5470 C   0  0  0  0  0  0  0  0  0  0  0  0
   12.8290   31.1060   54.3720 C   0  0  0  0  0  0  0  0  0  0  0  0
   12.8440   29.7170   54.4480 C   0  0  0  0  0  0  0  0  0  0  0  0
   13.5720   28.9580   53.5430 C   0  0  0  0  0  0  0  0  0  0  0  0
   13.5710   27.4590   53.6520 C   0  0  0  0  0  0  0  0  0  0  0  0
   12.8740   26.8780   54.6160 N   0  0  0  0  0  0  0  0  0  0  0  0
   14.2450   26.6950   52.7990 N   0  0  0  0  0  0  0  0  0  0  0  0
   15.7300   34.0860   53.0300 C   0  0  0  0  0  0  0  0  0  0  0  0
   15.9310   34.7990   54.2130 C   0  0  0  0  0  0  0  0  0  0  0  0
   17.2240   34.9710   54.7100 C   0  0  0  0  0  0  0  0  0  0  0  0
   17.4940   35.6490   55.8680 O   0  0  0  0  0  0  0  0  0  0  0  0
   16.4820   36.2410   56.6650 C   0  0  0  0  0  0  0  0  0  0  0  0
   18.3020   34.4430   54.0350 C   0  0  0  0  0  0  0  0  0  0  0  0
   18.1140   33.7370   52.8510 C   0  0  0  0  0  0  0  0  0  0  0  0
   16.8270   33.5670   52.3480 C   0  0  0  0  0  0  0  0  0  0  0  0
   19.5350   34.6480   54.5870 O   0  0  0  0  0  0  0  0  0  0  0  0
   20.7570   34.2730   53.9650 C   0  0  0  0  0  0  0  0  0  0  0  0
   21.8680   35.1090   54.5480 C   0  0  0  0  0  0  0  0  0  0  0  0
   23.1220   34.5400   54.7650 C   0  0  0  0  0  0  0  0  0  0  0  0
   24.1600   35.3020   55.3000 C   0  0  0  0  0  0  0  0  0  0  0  0
   23.9340   36.6400   55.6160 C   0  0  0  0  0  0  0  0  0  0  0  0
   22.6770   37.2110   55.4050 C   0  0  0  0  0  0  0  0  0  0  0  0
   21.6430   36.4460   54.8680 C   0  0  0  0  0  0  0  0  0  0  0  0
  2  1  2  0
  3  2  1  0
 14  2  1  0
  4  3  1  0
  5  4  1  0
 11  4  1  0
  6  5  2  0
 10  5  1  0
  7  6  1  0
  8  7  2  0
  9  8  1  0
 10  9  2  0
 12 11  2  0
 13 11  1  0
 15 14  1  0
 25 14  1  0
 16 15  1  0
 17 16  2  0
 19 16  1  0
 18 17  1  0
 21 18  2  0
 20 19  2  0
 21 20  1  0
 22 21  1  0
 23 22  2  0
 24 22  1  0
 26 25  2  0
 32 25  1  0
 27 26  1  0
 28 27  1  0
 30 27  2  0
 29 28  1  0
 31 30  1  0
 33 30  1  0
 32 31  2  0
 34 33  1  0
 35 34  1  0
 36 35  2  0
 40 35  1  0
 37 36  1  0
 38 37  2  0
 39 38  1  0
 40 39  2  0
A    1
O31
A    2
C31
A    3
N4
A    4
C23
A    5
C24
A    6
C25
A    7
C26
A    8
C27
A    9
C28
A   10
C29
A   11
C30
A   12
O30
A   13
O40
A   14
C8
A   15
N3
A   16
C5
A   17
C4
A   18
C3
A   19
C6
A   20
C7
A   21
C2
A   22
C1
A   23
N2
A   24
N1
A   25
C9
A   26
C14
A   27
C13
A   28
O3
A   29
C15
A   30
C12
A   31
C11
A   32
C10
A   33
O4
A   34
C16
A   35
C17
A   36
C22
A   37
C21
A   38
C20
A   39
C19
A   40
C18
M  END
>  <Id>  (3) 
1W8B_413_H_1259

>  <ChainId>  (3) 
H

>  <AsymId>  (3) 
D

>  <SeqNum>  (3) 
1259

>  <Name>  (3) 
(S)-[(R)-2-(4-BENZYLOXY-3-METHOXY-PHENYL)-2-(4-CARBAMIMIDOYL-PHENYLAMINO)-ACETYLAMINO]-PHENYL-ACETIC ACID

>  <SystematicName>  (3) 
(2S)-2-[[(2R)-2-[(4-carbamimidoylphenyl)amino]-2-(3-methoxy-4-phenylmethoxy-phenyl)ethanoyl]amino]-2-phenyl-ethanoic acid

>  <Synonyms>  (3) 


>  <Type>  (3) 
NON-POLYMER

>  <Formula>  (3) 
C31 H30 N4 O5

>  <ObservedFormula>  (3) 
C31 N4 O5

>  <MolecularWeight>  (3) 
538.594

>  <ModifiedDate>  (3) 
2011-06-04

>  <Parent>  (3) 


>  <OneLetterCode>  (3) 


>  <SubcomponentList>  (3) 


>  <AmbiguousFlag>  (3) 
N

>  <InsertionCode>  (3) 


>  <InstanceId>  (3) 
1W8B_413_H_1259

>  <ChemCompId>  (3) 
413

>  <PdbId>  (3) 
1W8B

>  <ResidueNumber>  (3) 
1259

>  <InChI>  (3) 
InChI=1S/C31H30N4O5/c1-39-26-18-23(14-17-25(26)40-19-20-8-4-2-5-9-20)27(34-24-15-12-22(13-16-24)29(32)33)30(36)35-28(31(37)38)21-10-6-3-7-11-21/h2-18,27-28,34H,19H2,1H3,(H3,32,33)(H,35,36)(H,37,38)/t27-,28+/m1/s1

>  <InChIKey>  (3) 
WGEGXJPYFSZDMU-IZLXSDGUSA-N

>  <SMILES>  (3) 
COc1cc(ccc1OCc2ccccc2)[C@H](C(=O)N[C@@H](c3ccccc3)C(=O)O)Nc4ccc(cc4)C(=N)N

>  <MissingHeavyAtoms>  (3) 
0

>  <Model>  (3) 
1

>  <AltIds>  (3) 


>  <pKI>  (3) 
8.4

>  <ChemblID>  (3) 
CHEMBL178616

>  <standardized_canonical_smiles>  (3) 
COc1cc([C@@H](Nc2ccc(C(=N)N)cc2)C(=O)N[C@H](C(=O)O)c2ccccc2)ccc1OCc1ccccc1

$$$$
1W2K_380_H_1258
     RDKit          3D

 31 33  0  0  0  0  0  0  0  0999 V2000
   30.3400    6.7100   15.0520 C   0  0  0  0  0  0  0  0  0  0  0  0
   29.3360    7.3050   15.7410 N   0  0  0  0  0  0  0  0  0  0  0  0
   31.0110    5.8030   15.7980 N   0  0  0  0  0  0  0  0  0  0  0  0
   30.5660    6.8970   13.6060 C   0  0  0  0  0  0  0  0  0  0  0  0
   29.7360    7.7560   12.8270 C   0  0  0  0  0  0  0  0  0  0  0  0
   29.7840    7.7520   11.4310 C   0  0  0  0  0  0  0  0  0  0  0  0
   30.6720    6.8820   10.7800 C   0  0  0  0  0  0  0  0  0  0  0  0
   30.9540    6.9830    9.3970 N   0  0  0  0  0  0  0  0  0  0  0  0
   32.1720    6.2720    8.8890 C   0  0  0  0  0  0  0  0  0  0  0  0
   32.0320    5.8400    7.4840 C   0  0  0  0  0  0  0  0  0  0  0  0
   31.6530    6.7080    6.5150 N   0  0  0  0  0  0  0  0  0  0  0  0
   31.8630    6.0460    5.1950 C   0  0  0  0  0  0  0  0  0  0  0  0
   33.0760    6.6070    4.5110 C   0  0  0  0  0  0  0  0  0  0  0  0
   32.8430    7.7450    3.7500 C   0  0  0  0  0  0  0  0  0  0  0  0
   33.8150    8.7260    3.6590 C   0  0  0  0  0  0  0  0  0  0  0  0
   35.0290    8.5640    4.3200 C   0  0  0  0  0  0  0  0  0  0  0  0
   35.2950    7.3990    5.0330 C   0  0  0  0  0  0  0  0  0  0  0  0
   34.3150    6.4170    5.1120 C   0  0  0  0  0  0  0  0  0  0  0  0
   32.3920    4.7420    7.0860 O   0  0  0  0  0  0  0  0  0  0  0  0
   33.5420    6.9460    9.1030 C   0  0  0  0  0  0  0  0  0  0  0  0
   33.8560    8.2680    8.7430 C   0  0  0  0  0  0  0  0  0  0  0  0
   35.1750    8.7390    8.8960 C   0  0  0  0  0  0  0  0  0  0  0  0
   35.5840    9.9840    8.4470 O   0  0  0  0  0  0  0  0  0  0  0  0
   34.6260   10.8800    7.8900 C   0  0  0  0  0  0  0  0  0  0  0  0
   36.1770    7.9160    9.4180 C   0  0  0  0  0  0  0  0  0  0  0  0
   37.3910    8.5160    9.7640 O   0  0  0  0  0  0  0  0  0  0  0  0
   38.3870    7.8460   10.5560 C   0  0  0  0  0  0  0  0  0  0  0  0
   34.5650    6.1410    9.6010 C   0  0  0  0  0  0  0  0  0  0  0  0
   35.8680    6.6030    9.7650 C   0  0  0  0  0  0  0  0  0  0  0  0
   31.5080    6.0460   11.5460 C   0  0  0  0  0  0  0  0  0  0  0  0
   31.4620    6.0530   12.9360 C   0  0  0  0  0  0  0  0  0  0  0  0
  2  1  1  0
  3  1  2  0
  4  1  1  0
  5  4  2  0
 31  4  1  0
  6  5  1  0
  7  6  2  0
  8  7  1  0
 30  7  1  0
  9  8  1  0
 10  9  1  0
 20  9  1  0
 11 10  1  0
 19 10  2  0
 12 11  1  0
 13 12  1  0
 14 13  2  0
 18 13  1  0
 15 14  1  0
 16 15  2  0
 17 16  1  0
 18 17  2  0
 21 20  2  0
 28 20  1  0
 22 21  1  0
 23 22  1  0
 25 22  2  0
 24 23  1  0
 26 25  1  0
 29 25  1  0
 27 26  1  0
 29 28  2  0
 31 30  2  0
A    1
C1
A    2
N1
A    3
N2
A    4
C2
A    5
C3
A    6
C4
A    7
C5
A    8
N3
A    9
C11
A   10
C22
A   11
N24
A   12
C25
A   13
C26
A   14
C27
A   15
C28
A   16
C29
A   17
C30
A   18
C31
A   19
O23
A   20
C12
A   21
C17
A   22
C19
A   23
O2
A   24
C24
A   25
C20
A   26
O3
A   27
C32
A   28
C16
A   29
C18
A   30
C6
A   31
C7
M  END
>  <Id>  (4) 
1W2K_380_H_1258

>  <ChainId>  (4) 
H

>  <AsymId>  (4) 
D

>  <SeqNum>  (4) 
1258

>  <Name>  (4) 
(2R)-2-({4-[AMINO(IMINO)METHYL]PHENYL}AMINO)-N-BENZYL-2-(3,4-DIMETHOXYPHENYL)ACETAMIDE

>  <SystematicName>  (4) 
(2R)-2-[(4-carbamimidoylphenyl)amino]-2-(3,4-dimethoxyphenyl)-N-(phenylmethyl)ethanamide

>  <Synonyms>  (4) 


>  <Type>  (4) 
NON-POLYMER

>  <Formula>  (4) 
C24 H26 N4 O3

>  <ObservedFormula>  (4) 
C24 N4 O3

>  <MolecularWeight>  (4) 
418.488

>  <ModifiedDate>  (4) 
2011-06-04

>  <Parent>  (4) 


>  <OneLetterCode>  (4) 


>  <SubcomponentList>  (4) 


>  <AmbiguousFlag>  (4) 
N

>  <InsertionCode>  (4) 


>  <InstanceId>  (4) 
1W2K_380_H_1258

>  <ChemCompId>  (4) 
380

>  <PdbId>  (4) 
1W2K

>  <ResidueNumber>  (4) 
1258

>  <InChI>  (4) 
InChI=1S/C24H26N4O3/c1-30-20-13-10-18(14-21(20)31-2)22(24(29)27-15-16-6-4-3-5-7-16)28-19-11-8-17(9-12-19)23(25)26/h3-14,22,28H,15H2,1-2H3,(H3,25,26)(H,27,29)/t22-/m1/s1

>  <InChIKey>  (4) 
BMQMRSICTKGCCO-JOCHJYFZSA-N

>  <SMILES>  (4) 
COc1ccc(cc1OC)[C@H](C(=O)NCc2ccccc2)Nc3ccc(cc3)C(=N)N

>  <MissingHeavyAtoms>  (4) 
0

>  <Model>  (4) 
1

>  <AltIds>  (4) 


>  <pKI>  (4) 
6.46

>  <ChemblID>  (4) 
CHEMBL179983

>  <standardized_canonical_smiles>  (4) 
COc1ccc(C(Nc2ccc(C(=N)N)cc2)C(=O)NCc2ccccc2)cc1OC

$$$$
2F9B_N1H_H_258
     RDKit          3D

 30 33  0  0  0  0  0  0  0  0999 V2000
   47.3280   -9.0340   12.4180 C   0  0  0  0  0  0  0  0  0  0  0  0
   47.1790   -7.7050   11.9870 C   0  0  0  0  0  0  0  0  0  0  0  0
   48.1510   -7.0680   11.2280 C   0  0  0  0  0  0  0  0  0  0  0  0
   49.2370   -7.8290   10.9410 C   0  0  0  0  0  0  0  0  0  0  0  0
   49.4100   -9.0820   11.3330 C   0  0  0  0  0  0  0  0  0  0  0  0
   48.4600   -9.6540   12.0570 N   0  0  0  0  0  0  0  0  0  0  0  0
   46.3940   -9.6240   13.1250 N   0  0  0  0  0  0  0  0  0  0  0  0
   50.3240   -7.5330   10.2380 N   0  0  0  0  0  0  0  0  0  0  0  0
   50.5730   -9.5780   10.9020 C   0  0  0  0  0  0  0  0  0  0  0  0
   51.1830   -8.5520   10.1710 C   0  0  0  0  0  0  0  0  0  0  0  0
   52.3800   -8.4240    9.4460 C   0  0  0  0  0  0  0  0  0  0  0  0
   53.2400   -9.5130    9.2950 C   0  0  0  0  0  0  0  0  0  0  0  0
   54.4380   -9.4190    8.5970 C   0  0  0  0  0  0  0  0  0  0  0  0
   55.3420  -10.6470    8.4540 C   0  0  0  0  0  0  0  0  0  0  0  0
   55.9840  -10.9640    9.8040 C   0  0  0  0  0  0  0  0  0  0  0  0
   55.2840  -11.5700   10.6000 O   0  0  0  0  0  0  0  0  0  0  0  0
   57.1330  -10.5750    9.9530 O   0  0  0  0  0  0  0  0  0  0  0  0
   54.8010   -8.2120    8.0330 C   0  0  0  0  0  0  0  0  0  0  0  0
   53.9890   -7.0790    8.1460 C   0  0  0  0  0  0  0  0  0  0  0  0
   52.7820   -7.2230    8.8550 C   0  0  0  0  0  0  0  0  0  0  0  0
   51.9170   -6.1640    8.9670 O   0  0  0  0  0  0  0  0  0  0  0  0
   54.4050   -5.8730    7.5760 C   0  0  0  0  0  0  0  0  0  0  0  0
   53.4900   -5.0430    6.9270 C   0  0  0  0  0  0  0  0  0  0  0  0
   53.9070   -3.8580    6.3420 C   0  0  0  0  0  0  0  0  0  0  0  0
   55.2440   -3.4720    6.3910 C   0  0  0  0  0  0  0  0  0  0  0  0
   56.1950   -4.2480    7.0250 C   0  0  0  0  0  0  0  0  0  0  0  0
   57.4540   -3.8360    7.0770 N   0  0  0  0  0  0  0  0  0  0  0  0
   58.3800   -4.3120    8.1070 O   0  0  0  0  0  0  0  0  0  0  0  0
   58.0340   -2.8290    6.0780 O   0  0  0  0  0  0  0  0  0  0  0  0
   55.7700   -5.4480    7.6150 C   0  0  0  0  0  0  0  0  0  0  0  0
  2  1  2  0
  6  1  1  0
  7  1  1  0
  3  2  1  0
  4  3  2  0
  5  4  1  0
  8  4  1  0
  6  5  2  0
  9  5  1  0
 10  8  1  0
 10  9  2  0
 11 10  1  0
 12 11  2  0
 20 11  1  0
 13 12  1  0
 14 13  1  0
 18 13  2  0
 15 14  1  0
 16 15  1  0
 17 15  2  0
 19 18  1  0
 20 19  2  0
 22 19  1  0
 21 20  1  0
 23 22  2  0
 30 22  1  0
 24 23  1  0
 25 24  2  0
 26 25  1  0
 27 26  1  0
 30 26  2  0
 28 27  1  0
 29 27  2  0
M  CHG  2  27   1  28  -1
A    1
C1
A    2
C2
A    3
C3
A    4
C4
A    5
C5
A    6
N6
A    7
N7
A    8
N3
A    9
CN4
A   10
C8
A   11
C1'
A   12
C2'
A   13
C3'
A   14
CV'
A   15
CW'
A   16
OX'
A   17
OY'
A   18
C4'
A   19
C5'
A   20
C6'
A   21
O6'
A   22
C1B
A   23
C2B
A   24
C3B
A   25
C4B
A   26
C5B
A   27
N5B
A   28
O51
A   29
O52
A   30
C6B
M  END
>  <Id>  (5) 
2F9B_N1H_H_258

>  <ChainId>  (5) 
H

>  <AsymId>  (5) 
D

>  <SeqNum>  (5) 
258

>  <Name>  (5) 
{5-(5-AMINO-1H-PYRROLO[3,2-B]PYRIDIN-2-YL)-6-HYDROXY-3'-NITRO-BIPHENYL-3-YL]-ACETIC ACID

>  <SystematicName>  (5) 
2-[3-(5-amino-1H-pyrrolo[4,5-b]pyridin-2-yl)-4-hydroxy-5-(3-nitrophenyl)phenyl]ethanoic acid

>  <Synonyms>  (5) 


>  <Type>  (5) 
NON-POLYMER

>  <Formula>  (5) 
C21 H16 N4 O5

>  <ObservedFormula>  (5) 
C21 N4 O5

>  <MolecularWeight>  (5) 
404.376

>  <ModifiedDate>  (5) 
2011-06-04

>  <Parent>  (5) 


>  <OneLetterCode>  (5) 


>  <SubcomponentList>  (5) 


>  <AmbiguousFlag>  (5) 
N

>  <InsertionCode>  (5) 


>  <InstanceId>  (5) 
2F9B_N1H_H_258

>  <ChemCompId>  (5) 
N1H

>  <PdbId>  (5) 
2F9B

>  <ResidueNumber>  (5) 
258

>  <InChI>  (5) 
InChI=1S/C21H16N4O5/c22-19-5-4-16-18(24-19)10-17(23-16)15-7-11(8-20(26)27)6-14(21(15)28)12-2-1-3-13(9-12)25(29)30/h1-7,9-10,23,28H,8H2,(H2,22,24)(H,26,27)

>  <InChIKey>  (5) 
BVBGZXXLVHYBKI-UHFFFAOYSA-N

>  <SMILES>  (5) 
c1cc(cc(c1)[N+](=O)[O-])c2cc(cc(c2O)c3cc4c([nH]3)ccc(n4)N)CC(=O)O

>  <MissingHeavyAtoms>  (5) 
0

>  <Model>  (5) 
1

>  <AltIds>  (5) 


>  <pKI>  (5) 
6.52

>  <ChemblID>  (5) 
CHEMBL377956

>  <standardized_canonical_smiles>  (5) 
Nc1ccc2[nH]c(-c3cc(CC(=O)O)cc(-c4cccc([N+](=O)[O-])c4)c3O)cc2n1

$$$$
2B7D_C1B_H_258
     RDKit          3D

 39 42  0  0  0  0  0  0  0  0999 V2000
   -7.9230    5.4370   13.1650 C   0  0  0  0  0  0  0  0  0  0  0  0
   -7.6930    4.1240   12.6590 C   0  0  0  0  0  0  0  0  0  0  0  0
   -8.6350    3.4590   11.8700 C   0  0  0  0  0  0  0  0  0  0  0  0
   -9.7850    4.1340   11.6080 C   0  0  0  0  0  0  0  0  0  0  0  0
  -10.0400    5.3590   12.0580 C   0  0  0  0  0  0  0  0  0  0  0  0
   -9.1490    6.0590   12.8390 C   0  0  0  0  0  0  0  0  0  0  0  0
   -6.9650    6.0700   13.9520 C   0  0  0  0  0  0  0  0  0  0  0  0
   -7.0210    7.3760   14.0640 N   0  0  0  0  0  0  0  0  0  0  0  0
   -6.0370    5.3420   14.5510 N   0  0  0  0  0  0  0  0  0  0  0  0
  -10.8130    3.7680   10.9190 N   0  0  0  0  0  0  0  0  0  0  0  0
  -11.2260    5.8050   11.6730 N   0  0  0  0  0  0  0  0  0  0  0  0
  -11.6430    4.7620   10.9700 C   0  0  0  0  0  0  0  0  0  0  0  0
  -12.8930    4.7590   10.3320 C   0  0  0  0  0  0  0  0  0  0  0  0
  -13.7420    5.8530   10.4340 C   0  0  0  0  0  0  0  0  0  0  0  0
  -14.9810    5.8830    9.8200 C   0  0  0  0  0  0  0  0  0  0  0  0
  -15.8850    7.1050   10.0280 C   0  0  0  0  0  0  0  0  0  0  0  0
  -17.2940    6.5710   10.4520 C   0  0  0  0  0  0  0  0  0  0  0  0
  -17.3480    6.0230   11.5490 O   0  0  0  0  0  0  0  0  0  0  0  0
  -18.2480    6.7060    9.7060 O   0  0  0  0  0  0  0  0  0  0  0  0
  -15.8190    8.0660    8.7850 C   0  0  0  0  0  0  0  0  0  0  0  0
  -14.4710    8.8670    8.6690 C   0  0  0  0  0  0  0  0  0  0  0  0
  -13.8320    9.2200    9.6560 O   0  0  0  0  0  0  0  0  0  0  0  0
  -14.1050    9.1200    7.5370 O   0  0  0  0  0  0  0  0  0  0  0  0
  -15.4050    4.7890    9.0680 C   0  0  0  0  0  0  0  0  0  0  0  0
  -14.6050    3.6490    8.9180 C   0  0  0  0  0  0  0  0  0  0  0  0
  -13.3470    3.6620    9.5670 C   0  0  0  0  0  0  0  0  0  0  0  0
  -12.4910    2.5780    9.4680 O   0  0  0  0  0  0  0  0  0  0  0  0
  -15.0640    2.5660    8.1550 C   0  0  0  0  0  0  0  0  0  0  0  0
  -14.2250    1.8650    7.2940 C   0  0  0  0  0  0  0  0  0  0  0  0
  -14.6630    0.7920    6.5720 C   0  0  0  0  0  0  0  0  0  0  0  0
  -15.9610    0.3730    6.6680 C   0  0  0  0  0  0  0  0  0  0  0  0
  -16.8440    1.0230    7.4920 C   0  0  0  0  0  0  0  0  0  0  0  0
  -18.2800    0.5080    7.5530 C   0  0  0  0  0  0  0  0  0  0  0  0
  -18.7500    0.6910    8.9460 N   0  0  0  0  0  0  0  0  0  0  0  0
  -19.5610    1.6860    9.2340 C   0  0  0  0  0  0  0  0  0  0  0  0
  -19.9470    2.4590    8.3790 O   0  0  0  0  0  0  0  0  0  0  0  0
  -20.0080    1.9070   10.4470 N   0  0  0  0  0  0  0  0  0  0  0  0
  -16.3960    2.1200    8.2360 C   0  0  0  0  0  0  0  0  0  0  0  0
  -12.9100    2.2330    7.1000 O   0  0  0  0  0  0  0  0  0  0  0  0
  2  1  2  0
  6  1  1  0
  7  1  1  0
  3  2  1  0
  4  3  2  0
  5  4  1  0
 10  4  1  0
  6  5  2  0
 11  5  1  0
  8  7  2  0
  9  7  1  0
 12 10  2  0
 12 11  1  0
 13 12  1  0
 14 13  2  0
 26 13  1  0
 15 14  1  0
 16 15  1  0
 24 15  2  0
 17 16  1  0
 20 16  1  0
 18 17  2  0
 19 17  1  0
 21 20  1  0
 22 21  1  0
 23 21  2  0
 25 24  1  0
 26 25  2  0
 28 25  1  0
 27 26  1  0
 29 28  2  0
 38 28  1  0
 30 29  1  0
 39 29  1  0
 31 30  2  0
 32 31  1  0
 33 32  1  0
 38 32  2  0
 34 33  1  0
 35 34  1  0
 36 35  2  0
 37 35  1  0
A    1
C1
A    2
C2
A    3
C3
A    4
C4
A    5
C5
A    6
C6
A    7
C7
A    8
N1
A    9
N2
A   10
N3
A   11
N4
A   12
C8
A   13
C1'
A   14
C2'
A   15
C3'
A   16
CVX
A   17
CWX
A   18
OXX
A   19
OYX
A   20
C6X
A   21
C7X
A   22
O8X
A   23
O9X
A   24
C4'
A   25
C5'
A   26
C6'
A   27
O6'
A   28
C1B
A   29
C2B
A   30
C3B
A   31
C4B
A   32
C5B
A   33
C51
A   34
N52
A   35
C53
A   36
O54
A   37
N55
A   38
C6B
A   39
O2B
M  END
>  <Id>  (6) 
2B7D_C1B_H_258

>  <ChainId>  (6) 
H

>  <AsymId>  (6) 
D

>  <SeqNum>  (6) 
258

>  <Name>  (6) 
(2R)-2-[5-(5-CARBAMIMIDOYL-1H-BENZOIMIDAZOL-2-YL)-6,2'-DIHYDROXY-5'-UREIDOMETHYL-BIPHENYL-3-YL]-SUCCINIC ACID

>  <SystematicName>  (6) 
(2R)-2-[3-[5-[(aminocarbonylamino)methyl]-2-hydroxy-phenyl]-5-(6-carbamimidoyl-1H-benzimidazol-2-yl)-4-hydroxy-phenyl]butanedioic acid

>  <Synonyms>  (6) 


>  <Type>  (6) 
NON-POLYMER

>  <Formula>  (6) 
C26 H24 N6 O7

>  <ObservedFormula>  (6) 
C26 N6 O7

>  <MolecularWeight>  (6) 
532.505

>  <ModifiedDate>  (6) 
2011-06-04

>  <Parent>  (6) 


>  <OneLetterCode>  (6) 


>  <SubcomponentList>  (6) 


>  <AmbiguousFlag>  (6) 
N

>  <InsertionCode>  (6) 


>  <InstanceId>  (6) 
2B7D_C1B_H_258

>  <ChemCompId>  (6) 
C1B

>  <PdbId>  (6) 
2B7D

>  <ResidueNumber>  (6) 
258

>  <InChI>  (6) 
InChI=1S/C26H24N6O7/c27-23(28)12-2-3-18-19(8-12)32-24(31-18)17-7-13(14(25(37)38)9-21(34)35)6-16(22(17)36)15-5-11(1-4-20(15)33)10-30-26(29)39/h1-8,14,33,36H,9-10H2,(H3,27,28)(H,31,32)(H,34,35)(H,37,38)(H3,29,30,39)/t14-/m1/s1

>  <InChIKey>  (6) 
JCBJULMYEXYZRC-CQSZACIVSA-N

>  <SMILES>  (6) 
[H]/N=C(/c1ccc2c(c1)[nH]c(n2)c3cc(cc(c3O)c4cc(ccc4O)CNC(=O)N)[C@@H](CC(=O)O)C(=O)O)\N

>  <MissingHeavyAtoms>  (6) 
0

>  <Model>  (6) 
1

>  <AltIds>  (6) 


>  <pKI>  (6) 
9.0

>  <ChemblID>  (6) 
CHEMBL206387

>  <standardized_canonical_smiles>  (6) 
N=C(N)c1ccc2nc(-c3cc(C(CC(=O)O)C(=O)O)cc(-c4cc(CNC(N)=O)ccc4O)c3O)[nH]c2c1

$$$$
1WQV_PSM_H_1001
     RDKit          3D

 32 32  0  0  0  0  0  0  0  0999 V2000
   35.7210    6.8580   10.2520 C   0  0  0  0  0  0  0  0  0  0  0  0
   34.8600    7.1780   11.0710 O   0  0  0  0  0  0  0  0  0  0  0  0
   38.0640    6.9970   11.2430 C   0  0  0  0  0  0  0  0  0  0  0  0
   39.1720    6.2450   11.7560 O   0  0  0  0  0  0  0  0  0  0  0  0
   36.6300    5.0550   11.6950 N   0  0  0  0  0  0  0  0  0  0  0  0
   36.9700    6.0480   10.6700 C   0  0  0  0  0  0  0  0  0  0  0  0
   38.4400    8.2660   10.4070 C   0  0  0  0  0  0  0  0  0  0  0  0
   36.3490    3.4150   11.2040 S   0  0  0  0  0  0  0  0  0  0  0  0
   36.2250    2.6990   12.4130 O   0  0  0  0  0  0  0  0  0  0  0  0
   37.4440    3.1100   10.3350 O   0  0  0  0  0  0  0  0  0  0  0  0
   34.8370    3.3420   10.3280 C   0  0  0  0  0  0  0  0  0  0  0  0
   33.7030    3.3120   11.3070 C   0  0  0  0  0  0  0  0  0  0  0  0
   32.3880    3.1950   10.5600 C   0  0  0  0  0  0  0  0  0  0  0  0
   35.6850    7.1580    8.9410 N   0  0  0  0  0  0  0  0  0  0  0  0
   34.6010    7.9960    8.5170 C   0  0  0  0  0  0  0  0  0  0  0  0
   33.2660    7.2910    8.7430 C   0  0  0  0  0  0  0  0  0  0  0  0
   33.1530    6.0740    8.5970 O   0  0  0  0  0  0  0  0  0  0  0  0
   34.8210    8.5880    7.1290 C   0  0  0  0  0  0  0  0  0  0  0  0
   36.1320    9.4050    7.0500 C   0  0  0  0  0  0  0  0  0  0  0  0
   36.4010   10.5630    8.4490 S   0  0  0  0  0  0  0  0  0  0  0  0
   34.9610   11.6560    8.2330 C   0  0  0  0  0  0  0  0  0  0  0  0
   32.2980    8.1570    9.1280 N   0  0  0  0  0  0  0  0  0  0  0  0
   31.0040    7.6190    9.4260 C   0  0  0  0  0  0  0  0  0  0  0  0
   30.7600    7.3300   10.8880 C   0  0  0  0  0  0  0  0  0  0  0  0
   31.5870    6.4110   11.5780 C   0  0  0  0  0  0  0  0  0  0  0  0
   31.3830    6.1550   12.9350 C   0  0  0  0  0  0  0  0  0  0  0  0
   30.3810    6.8510   13.6590 C   0  0  0  0  0  0  0  0  0  0  0  0
   30.2370    6.6420   15.1310 C   0  0  0  0  0  0  0  0  0  0  0  0
   30.8140    5.6160   15.7290 N   0  0  0  0  0  0  0  0  0  0  0  0
   29.5190    7.4510   15.9080 N   0  0  0  0  0  0  0  0  0  0  0  0
   29.5340    7.7550   12.9600 C   0  0  0  0  0  0  0  0  0  0  0  0
   29.7170    7.9760   11.5790 C   0  0  0  0  0  0  0  0  0  0  0  0
  2  1  2  0
  6  1  1  0
 14  1  1  0
  4  3  1  0
  6  3  1  0
  7  3  1  0
  6  5  1  0
  8  5  1  0
  9  8  2  0
 10  8  2  0
 11  8  1  0
 12 11  1  0
 13 12  1  0
 15 14  1  0
 16 15  1  0
 18 15  1  0
 17 16  2  0
 22 16  1  0
 19 18  1  0
 20 19  1  0
 21 20  1  0
 23 22  1  0
 24 23  1  0
 25 24  2  0
 32 24  1  0
 26 25  1  0
 27 26  2  0
 28 27  1  0
 31 27  1  0
 29 28  2  0
 30 28  1  0
 32 31  2  0
A    1
C15
A    2
O1
A    3
C1
A    4
O2
A    5
N4
A    6
C5
A    7
C3
A    8
S1
A    9
O4
A   10
O3
A   11
C9
A   12
C8
A   13
C7
A   14
N17
A   15
C18
A   16
C28
A   17
O30
A   18
C19
A   19
C20
A   20
S2
A   21
C6
A   22
N31
A   23
C32
A   24
C25
A   25
C16
A   26
C17
A   27
C22
A   28
C26
A   29
N1
A   30
N2
A   31
C23
A   32
C24
M  END
>  <Id>  (7) 
1WQV_PSM_H_1001

>  <ChainId>  (7) 
H

>  <AsymId>  (7) 
O

>  <SeqNum>  (7) 
1001

>  <Name>  (7) 
N-[DIHYDROXY(PROPYL)-LAMBDA~4~-SULFANYL]THREONYL-N~1~-{4-[AMINO(IMINO)METHYL]BENZYL}METHIONINAMIDE

>  <SystematicName>  (7) 
(2R,3S)-N-[(2S)-1-[(4-carbamimidoylphenyl)methylamino]-4-methylsulfanyl-1-oxo-butan-2-yl]-3-hydroxy-2-(propylsulfonylamino)butanamide

>  <Synonyms>  (7) 
N-[1-(4-CARBAMIMIDOYL-BENZYLCARBAMOYL)-3-METHYLSULFANYL-PROPYL]-3-HYDROXY-2-PROPOXYAMINO-BUTYRAMID

>  <Type>  (7) 
peptide-like

>  <Formula>  (7) 
C20 H33 N5 O5 S2

>  <ObservedFormula>  (7) 
C20 S2 N5 O5

>  <MolecularWeight>  (7) 
487.637

>  <ModifiedDate>  (7) 
2011-06-04

>  <Parent>  (7) 


>  <OneLetterCode>  (7) 


>  <SubcomponentList>  (7) 
0TH MET 00S

>  <AmbiguousFlag>  (7) 
N

>  <InsertionCode>  (7) 


>  <InstanceId>  (7) 
1WQV_PSM_H_1001

>  <ChemCompId>  (7) 
PSM

>  <PdbId>  (7) 
1WQV

>  <ResidueNumber>  (7) 
1001

>  <InChI>  (7) 
InChI=1S/C20H33N5O5S2/c1-4-11-32(29,30)25-17(13(2)26)20(28)24-16(9-10-31-3)19(27)23-12-14-5-7-15(8-6-14)18(21)22/h5-8,13,16-17,25-26H,4,9-12H2,1-3H3,(H3,21,22)(H,23,27)(H,24,28)/t13-,16-,17+/m0/s1

>  <InChIKey>  (7) 
AIIJKVORRBMJHS-RRQGHBQHSA-N

>  <SMILES>  (7) 
CCCS(=O)(=O)N[C@H]([C@H](C)O)C(=O)N[C@@H](CCSC)C(=O)NCc1ccc(cc1)C(=N)N

>  <MissingHeavyAtoms>  (7) 
0

>  <Model>  (7) 
1

>  <AltIds>  (7) 


>  <pKI>  (7) 
6.89

>  <ChemblID>  (7) 
CHEMBL524462

>  <standardized_canonical_smiles>  (7) 
CCCS(=O)(=O)N[C@@H](C(=O)N[C@@H](CCSC)C(=O)NCc1ccc(C(=N)N)cc1)[C@@H](C)O

$$$$
2ZP0_PI0_H_1001
     RDKit          3D

 38 39  0  0  0  0  0  0  0  0999 V2000
   37.7220    6.7230   10.9840 C   0  0  0  0  0  0  0  0  0  0  0  0
   35.6110    9.7150    5.1610 C   0  0  0  0  0  0  0  0  0  0  0  0
   36.2540    3.2850    9.7740 O   0  0  0  0  0  0  0  0  0  0  0  0
   38.9330    5.8060   10.8910 C   0  0  0  0  0  0  0  0  0  0  0  0
   39.9880    6.2720   11.8600 C   0  0  0  0  0  0  0  0  0  0  0  0
   32.9390    2.1720    8.8700 C   0  0  0  0  0  0  0  0  0  0  0  0
   33.7780    3.8520   10.5420 C   0  0  0  0  0  0  0  0  0  0  0  0
   31.2830    0.5070    9.4880 C   0  0  0  0  0  0  0  0  0  0  0  0
   35.3300    6.8100   10.1440 C   0  0  0  0  0  0  0  0  0  0  0  0
   31.1550    6.5340   11.4590 C   0  0  0  0  0  0  0  0  0  0  0  0
   30.9500    6.2600   12.8200 C   0  0  0  0  0  0  0  0  0  0  0  0
   34.2450    8.1130    8.3960 C   0  0  0  0  0  0  0  0  0  0  0  0
   34.3920    8.5050    6.9350 C   0  0  0  0  0  0  0  0  0  0  0  0
   35.7250    9.1630    6.5900 C   0  0  0  0  0  0  0  0  0  0  0  0
   29.1460    7.8880   12.8930 C   0  0  0  0  0  0  0  0  0  0  0  0
   29.3660    8.1770   11.5270 C   0  0  0  0  0  0  0  0  0  0  0  0
   29.7640    6.6310   14.9810 C   0  0  0  0  0  0  0  0  0  0  0  0
   32.9160    7.4030    8.6270 C   0  0  0  0  0  0  0  0  0  0  0  0
   30.6210    7.7730    9.3620 C   0  0  0  0  0  0  0  0  0  0  0  0
   34.5190    7.0780   11.0280 O   0  0  0  0  0  0  0  0  0  0  0  0
   35.2990    7.2150    8.8510 N   0  0  0  0  0  0  0  0  0  0  0  0
   32.7780    6.1940    8.4160 O   0  0  0  0  0  0  0  0  0  0  0  0
   31.9660    8.2470    9.0810 N   0  0  0  0  0  0  0  0  0  0  0  0
   29.9470    6.9280   13.5500 C   0  0  0  0  0  0  0  0  0  0  0  0
   30.3690    7.4900   10.8030 C   0  0  0  0  0  0  0  0  0  0  0  0
   30.5820    5.8060   15.6200 N   0  0  0  0  0  0  0  0  0  0  0  0
   35.3800    8.9570    4.2200 O   0  0  0  0  0  0  0  0  0  0  0  0
   35.6690   11.0720    5.0450 N   0  0  0  0  0  0  0  0  0  0  0  0
   36.1380    4.9730   11.4810 N   0  0  0  0  0  0  0  0  0  0  0  0
   36.5210    5.9300   10.4510 C   0  0  0  0  0  0  0  0  0  0  0  0
   37.9500    8.0800   10.2670 C   0  0  0  0  0  0  0  0  0  0  0  0
   35.4490    3.5280   10.9180 S   0  0  0  0  0  0  0  0  0  0  0  0
   35.5270    2.6520   12.0380 O   0  0  0  0  0  0  0  0  0  0  0  0
   32.9410    2.6750   10.1920 C   0  0  0  0  0  0  0  0  0  0  0  0
   32.1010    1.1020    8.5150 C   0  0  0  0  0  0  0  0  0  0  0  0
   31.2970    0.9940   10.8130 C   0  0  0  0  0  0  0  0  0  0  0  0
   32.1230    2.0830   11.1650 C   0  0  0  0  0  0  0  0  0  0  0  0
   28.8150    7.2110   15.7040 N   0  0  0  0  0  0  0  0  0  0  0  0
  4  1  1  0
 30  1  1  0
 31  1  1  0
 14  2  1  0
 27  2  2  0
 28  2  1  0
 32  3  2  0
  5  4  1  0
 34  6  2  0
 35  6  1  0
 32  7  1  0
 34  7  1  0
 35  8  2  0
 36  8  1  0
 20  9  2  0
 21  9  1  0
 30  9  1  0
 11 10  2  0
 25 10  1  0
 24 11  1  0
 13 12  1  0
 18 12  1  0
 21 12  1  0
 14 13  1  0
 16 15  1  0
 24 15  2  0
 25 16  2  0
 24 17  1  0
 26 17  2  0
 38 17  1  0
 22 18  2  0
 23 18  1  0
 23 19  1  0
 25 19  1  0
 30 29  1  0
 32 29  1  0
 33 32  2  0
 37 34  1  0
 37 36  2  0
A    1
C1
A    2
C2
A    3
O3
A    4
C4
A    5
C6
A    6
C7
A    7
C9
A    8
C10
A    9
C15
A   10
C16
A   11
C17
A   12
C18
A   13
C19
A   14
C20
A   15
C23
A   16
C24
A   17
C26
A   18
C28
A   19
C32
A   20
O1
A   21
N17
A   22
O30
A   23
N31
A   24
C22
A   25
C25
A   26
N1
A   27
O2
A   28
N3
A   29
N4
A   30
C5
A   31
C3
A   32
S1
A   33
O4
A   34
C8
A   35
C12
A   36
C11
A   37
C13
A   38
N2
M  END
>  <Id>  (8) 
2ZP0_PI0_H_1001

>  <ChainId>  (8) 
H

>  <AsymId>  (8) 
O

>  <SeqNum>  (8) 
1001

>  <Name>  (8) 
(2S)-N-[(4-carbamimidoylphenyl)methyl]-2-[[(2R,3R)-3-methyl-2-(phenylmethylsulfonylamino)pentanoyl]amino]pentanediamide

>  <SystematicName>  (8) 
(2S)-N-[(4-carbamimidoylphenyl)methyl]-2-[[(2R,3R)-3-methyl-2-(phenylmethylsulfonylamino)pentanoyl]amino]pentanediamide

>  <Synonyms>  (8) 


>  <Type>  (8) 
NON-POLYMER

>  <Formula>  (8) 
C26 H36 N6 O5 S

>  <ObservedFormula>  (8) 
C26 S N6 O5

>  <MolecularWeight>  (8) 
544.666

>  <ModifiedDate>  (8) 
2011-06-04

>  <Parent>  (8) 


>  <OneLetterCode>  (8) 


>  <SubcomponentList>  (8) 


>  <AmbiguousFlag>  (8) 
N

>  <InsertionCode>  (8) 


>  <InstanceId>  (8) 
2ZP0_PI0_H_1001

>  <ChemCompId>  (8) 
PI0

>  <PdbId>  (8) 
2ZP0

>  <ResidueNumber>  (8) 
1001

>  <InChI>  (8) 
InChI=1S/C26H36N6O5S/c1-3-17(2)23(32-38(36,37)16-19-7-5-4-6-8-19)26(35)31-21(13-14-22(27)33)25(34)30-15-18-9-11-20(12-10-18)24(28)29/h4-12,17,21,23,32H,3,13-16H2,1-2H3,(H2,27,33)(H3,28,29)(H,30,34)(H,31,35)/t17-,21+,23-/m1/s1

>  <InChIKey>  (8) 
RKXCEYZSZWJMTQ-FRGLQRNOSA-N

>  <SMILES>  (8) 
[H]/N=C(/c1ccc(cc1)CNC(=O)[C@H](CCC(=O)N)NC(=O)[C@@H]([C@H](C)CC)NS(=O)(=O)Cc2ccccc2)\N

>  <MissingHeavyAtoms>  (8) 
0

>  <Model>  (8) 
1

>  <AltIds>  (8) 


>  <pKI>  (8) 
7.6

>  <ChemblID>  (8) 
CHEMBL497307

>  <standardized_canonical_smiles>  (8) 
CC[C@H](C)[C@@H](NS(=O)(=O)Cc1ccccc1)C(=O)N[C@@H](CCC(N)=O)C(=O)NCc1ccc(C(=N)N)cc1

$$$$
4ISH_1GE_H_301
     RDKit          3D

 38 43  0  0  0  0  0  0  0  0999 V2000
    9.4490   34.2270   28.5980 C   0  0  0  0  0  0  0  0  0  0  0  0
    9.8130   33.8700   27.2800 C   0  0  0  0  0  0  0  0  0  0  0  0
    9.2480   34.5450   26.1900 C   0  0  0  0  0  0  0  0  0  0  0  0
    8.3180   35.5900   26.3910 C   0  0  0  0  0  0  0  0  0  0  0  0
    7.9460   35.9530   27.7130 C   0  0  0  0  0  0  0  0  0  0  0  0
    8.5350   35.2810   28.7970 C   0  0  0  0  0  0  0  0  0  0  0  0
    9.9680   33.4930   29.7610 C   0  0  0  0  0  0  0  0  0  0  0  0
   10.5080   32.2760   29.6510 N   0  0  0  0  0  0  0  0  0  0  0  0
    9.8820   34.0840   30.9840 N   0  0  0  0  0  0  0  0  0  0  0  0
    7.7360   36.1770   25.2930 N   0  0  0  0  0  0  0  0  0  0  0  0
    6.9150   37.3820   25.4000 C   0  0  0  0  0  0  0  0  0  0  0  0
    6.1010   37.5070   26.7180 C   0  0  0  0  0  0  0  0  0  0  0  0
    6.8510   36.9860   27.9280 C   0  0  0  0  0  0  0  0  0  0  0  0
    5.3100   38.7490   27.0590 C   0  0  0  0  0  0  0  0  0  0  0  0
    6.3800   39.3190   27.9450 C   0  0  0  0  0  0  0  0  0  0  0  0
    7.2530   38.3410   28.4640 C   0  0  0  0  0  0  0  0  0  0  0  0
    6.5600   40.6850   28.2540 C   0  0  0  0  0  0  0  0  0  0  0  0
    7.6240   41.0460   29.1050 C   0  0  0  0  0  0  0  0  0  0  0  0
    8.4960   40.0720   29.6360 C   0  0  0  0  0  0  0  0  0  0  0  0
    8.3170   38.7090   29.3160 C   0  0  0  0  0  0  0  0  0  0  0  0
    5.9190   37.5040   24.2520 C   0  0  0  0  0  0  0  0  0  0  0  0
    5.7870   38.7350   23.5420 C   0  0  0  0  0  0  0  0  0  0  0  0
    4.7640   38.8100   22.5890 C   0  0  0  0  0  0  0  0  0  0  0  0
    3.9370   37.7120   22.2860 C   0  0  0  0  0  0  0  0  0  0  0  0
    4.0850   36.4620   22.9300 C   0  0  0  0  0  0  0  0  0  0  0  0
    5.0880   36.3930   23.9350 C   0  0  0  0  0  0  0  0  0  0  0  0
    6.6970   39.9050   23.6670 C   0  0  0  0  0  0  0  0  0  0  0  0
    6.2760   41.1670   24.1240 C   0  0  0  0  0  0  0  0  0  0  0  0
    7.1780   42.2670   24.1800 C   0  0  0  0  0  0  0  0  0  0  0  0
    8.5340   42.1310   23.7800 C   0  0  0  0  0  0  0  0  0  0  0  0
    8.9530   40.8600   23.3330 C   0  0  0  0  0  0  0  0  0  0  0  0
    8.0420   39.7710   23.2850 C   0  0  0  0  0  0  0  0  0  0  0  0
    9.4800   43.2500   23.8410 C   0  0  0  0  0  0  0  0  0  0  0  0
    9.0620   44.2980   24.5890 O   0  0  0  0  0  0  0  0  0  0  0  0
   10.5350   43.1990   23.2770 O   0  0  0  0  0  0  0  0  0  0  0  0
    3.2670   35.4260   22.5010 O   0  0  0  0  0  0  0  0  0  0  0  0
    3.3970   34.1840   23.1710 C   0  0  0  0  0  0  0  0  0  0  0  0
    2.9750   37.8640   21.3090 O   0  0  0  0  0  0  0  0  0  0  0  0
  2  1  2  0
  6  1  1  0
  7  1  1  0
  3  2  1  0
  4  3  2  0
  5  4  1  0
 10  4  1  0
  6  5  2  0
 13  5  1  0
  8  7  2  0
  9  7  1  0
 11 10  1  0
 12 11  1  0
 21 11  1  0
 13 12  1  0
 14 12  1  0
 16 13  1  0
 15 14  1  0
 16 15  2  0
 17 15  1  0
 20 16  1  0
 18 17  2  0
 19 18  1  0
 20 19  2  0
 22 21  1  0
 26 21  2  0
 23 22  2  0
 27 22  1  0
 24 23  1  0
 25 24  2  0
 38 24  1  0
 26 25  1  0
 36 25  1  0
 28 27  2  0
 32 27  1  0
 29 28  1  0
 30 29  2  0
 31 30  1  0
 33 30  1  0
 32 31  2  0
 34 33  1  0
 35 33  2  0
 37 36  1  0
A    1
C1
A    2
C2
A    3
C3
A    4
C4
A    5
C5
A    6
C6
A    7
C10
A    8
N11
A    9
N12
A   10
N13
A   11
C14
A   12
C15
A   13
C16
A   14
C17
A   15
C18
A   16
C19
A   17
C24
A   18
C25
A   19
C26
A   20
C27
A   21
C32
A   22
C34
A   23
C35
A   24
C36
A   25
C37
A   26
C38
A   27
C41
A   28
C42
A   29
C43
A   30
C44
A   31
C45
A   32
C46
A   33
C51
A   34
O52
A   35
O53
A   36
O54
A   37
C55
A   38
O59
M  END
>  <Id>  (9) 
4ISH_1GE_H_301

>  <ChainId>  (9) 
H

>  <AsymId>  (9) 
C

>  <SeqNum>  (9) 
301

>  <Name>  (9) 
2'-[(6R,6aR,11bR)-2-carbamimidoyl-6,6a,7,11b-tetrahydro-5H-indeno[2,1-c]quinolin-6-yl]-5'-hydroxy-4'-methoxybiphenyl-4-carboxylic acid

>  <SystematicName>  (9) 
4-[2-[(6R,6aR,11bR)-2-carbamimidoyl-6,6a,7,11b-tetrahydro-5H-indeno[2,1-c]quinolin-6-yl]-4-methoxy-5-oxidanyl-phenyl]benzoic acid

>  <Synonyms>  (9) 


>  <Type>  (9) 
NON-POLYMER

>  <Formula>  (9) 
C31 H27 N3 O4

>  <ObservedFormula>  (9) 
C31 N3 O4

>  <MolecularWeight>  (9) 
505.564

>  <ModifiedDate>  (9) 
2013-03-15

>  <Parent>  (9) 


>  <OneLetterCode>  (9) 


>  <SubcomponentList>  (9) 


>  <AmbiguousFlag>  (9) 
N

>  <InsertionCode>  (9) 


>  <InstanceId>  (9) 
4ISH_1GE_H_301

>  <ChemCompId>  (9) 
1GE

>  <PdbId>  (9) 
4ISH

>  <ResidueNumber>  (9) 
301

>  <InChI>  (9) 
InChI=1S/C31H27N3O4/c1-38-27-15-22(21(14-26(27)35)16-6-8-17(9-7-16)31(36)37)29-24-12-18-4-2-3-5-20(18)28(24)23-13-19(30(32)33)10-11-25(23)34-29/h2-11,13-15,24,28-29,34-35H,12H2,1H3,(H3,32,33)(H,36,37)/t24-,28-,29+/m1/s1

>  <InChIKey>  (9) 
UZOHOGNUODEPEP-USOMCTOXSA-N

>  <SMILES>  (9) 
[H]/N=C(\c1ccc2c(c1)[C@H]3c4ccccc4C[C@H]3[C@@H](N2)c5cc(c(cc5c6ccc(cc6)C(=O)O)O)OC)/N

>  <MissingHeavyAtoms>  (9) 
0

>  <Model>  (9) 
1

>  <AltIds>  (9) 


>  <pKI>  (9) 
8.72

>  <ChemblID>  (9) 
CHEMBL2409314

>  <standardized_canonical_smiles>  (9) 
COc1cc([C@@H]2Nc3ccc(C(=N)N)cc3[C@H]3c4ccccc4C[C@@H]23)c(-c2ccc(C(=O)O)cc2)cc1O

$$$$
4NA9_1T7_H_301
     RDKit          3D

 35 39  0  0  0  0  0  0  0  0999 V2000
    8.8620   40.2640   22.8440 C   0  0  0  0  0  0  0  0  0  0  0  0
    8.7750   41.6550   22.8620 C   0  0  0  0  0  0  0  0  0  0  0  0
    9.9120   42.4410   22.6790 C   0  0  0  0  0  0  0  0  0  0  0  0
   11.1420   41.8480   22.4580 C   0  0  0  0  0  0  0  0  0  0  0  0
   11.2480   40.4700   22.4100 C   0  0  0  0  0  0  0  0  0  0  0  0
   10.1110   39.6740   22.5860 C   0  0  0  0  0  0  0  0  0  0  0  0
    8.1930   35.6610   28.0560 C   0  0  0  0  0  0  0  0  0  0  0  0
    8.7160   35.4090   26.7790 C   0  0  0  0  0  0  0  0  0  0  0  0
    8.1250   35.9760   25.6530 N   0  0  0  0  0  0  0  0  0  0  0  0
    6.8800   36.7400   25.7600 C   0  0  0  0  0  0  0  0  0  0  0  0
    6.9630   37.5990   27.0310 C   0  0  0  0  0  0  0  0  0  0  0  0
    7.0810   36.6670   28.2620 C   0  0  0  0  0  0  0  0  0  0  0  0
    9.6040   33.9020   28.9650 C   0  0  0  0  0  0  0  0  0  0  0  0
   10.0910   33.6520   27.6850 C   0  0  0  0  0  0  0  0  0  0  0  0
    9.6840   34.4210   26.6110 C   0  0  0  0  0  0  0  0  0  0  0  0
    8.6700   34.9170   29.1380 C   0  0  0  0  0  0  0  0  0  0  0  0
    9.9830   33.0450   30.1440 C   0  0  0  0  0  0  0  0  0  0  0  0
   10.6450   31.8390   29.9280 N   0  0  0  0  0  0  0  0  0  0  0  0
    9.7570   33.5210   31.3590 N   0  0  0  0  0  0  0  0  0  0  0  0
    7.3580   37.6650   29.3810 C   0  0  0  0  0  0  0  0  0  0  0  0
    6.7320   37.6790   24.5820 C   0  0  0  0  0  0  0  0  0  0  0  0
    7.7840   38.5020   24.2170 C   0  0  0  0  0  0  0  0  0  0  0  0
    7.6690   39.4420   23.1990 C   0  0  0  0  0  0  0  0  0  0  0  0
    6.4540   39.5350   22.5140 C   0  0  0  0  0  0  0  0  0  0  0  0
    5.3760   38.7050   22.8460 C   0  0  0  0  0  0  0  0  0  0  0  0
    5.5340   37.7900   23.8870 C   0  0  0  0  0  0  0  0  0  0  0  0
    8.6440   38.1200   29.6420 C   0  0  0  0  0  0  0  0  0  0  0  0
    8.8520   39.2130   30.4780 C   0  0  0  0  0  0  0  0  0  0  0  0
    7.7800   39.8490   31.0700 C   0  0  0  0  0  0  0  0  0  0  0  0
    6.5030   39.3810   30.8460 C   0  0  0  0  0  0  0  0  0  0  0  0
    6.2930   38.2870   30.0170 C   0  0  0  0  0  0  0  0  0  0  0  0
    4.1660   38.7730   22.1500 N   0  0  0  0  0  0  0  0  0  0  0  0
   10.2440   38.2110   22.3890 C   0  0  0  0  0  0  0  0  0  0  0  0
   11.0620   37.6230   23.2180 O   0  0  0  0  0  0  0  0  0  0  0  0
    9.5230   37.6310   21.5920 O   0  0  0  0  0  0  0  0  0  0  0  0
  2  1  2  0
  6  1  1  0
 23  1  1  0
  3  2  1  0
  4  3  2  0
  5  4  1  0
  6  5  2  0
 33  6  1  0
  8  7  2  0
 12  7  1  0
 16  7  1  0
  9  8  1  0
 15  8  1  0
 10  9  1  0
 11 10  1  0
 21 10  1  0
 12 11  1  0
 20 12  1  0
 14 13  1  0
 16 13  2  0
 17 13  1  0
 15 14  2  0
 18 17  1  0
 19 17  2  0
 27 20  2  0
 31 20  1  0
 22 21  2  0
 26 21  1  0
 23 22  1  0
 24 23  2  0
 25 24  1  0
 26 25  2  0
 32 25  1  0
 28 27  1  0
 29 28  2  0
 30 29  1  0
 31 30  2  0
 34 33  1  0
 35 33  2  0
A    1
C1
A    2
C2
A    3
C3
A    4
C4
A    5
C5
A    6
C6
A    7
C7
A    8
C8
A    9
N9
A   10
C10
A   11
C11
A   12
C12
A   13
C13
A   14
C14
A   15
C15
A   16
C16
A   17
C17
A   18
N18
A   19
N19
A   20
C20
A   21
C21
A   22
C22
A   23
C23
A   24
C24
A   25
C25
A   26
C26
A   27
C27
A   28
C28
A   29
C29
A   30
C30
A   31
C31
A   32
N32
A   33
C33
A   34
O34
A   35
O35
M  END
>  <Id>  (10) 
4NA9_1T7_H_301

>  <ChainId>  (10) 
H

>  <AsymId>  (10) 
C

>  <SeqNum>  (10) 
301

>  <Name>  (10) 
3'-amino-5'-[(2S,4R)-6-carbamimidoyl-4-phenyl-1,2,3,4-tetrahydroquinolin-2-yl]biphenyl-2-carboxylic acid

>  <SystematicName>  (10) 
2-[3-azanyl-5-[(2S,4R)-6-carbamimidoyl-4-phenyl-1,2,3,4-tetrahydroquinolin-2-yl]phenyl]benzoic acid

>  <Synonyms>  (10) 


>  <Type>  (10) 
NON-POLYMER

>  <Formula>  (10) 
C29 H26 N4 O2

>  <ObservedFormula>  (10) 
C29 N4 O2

>  <MolecularWeight>  (10) 
462.542

>  <ModifiedDate>  (10) 
2014-02-07

>  <Parent>  (10) 


>  <OneLetterCode>  (10) 


>  <SubcomponentList>  (10) 


>  <AmbiguousFlag>  (10) 
N

>  <InsertionCode>  (10) 


>  <InstanceId>  (10) 
4NA9_1T7_H_301

>  <ChemCompId>  (10) 
1T7

>  <PdbId>  (10) 
4NA9

>  <ResidueNumber>  (10) 
301

>  <InChI>  (10) 
InChI=1S/C29H26N4O2/c30-21-13-19(22-8-4-5-9-23(22)29(34)35)12-20(14-21)27-16-24(17-6-2-1-3-7-17)25-15-18(28(31)32)10-11-26(25)33-27/h1-15,24,27,33H,16,30H2,(H3,31,32)(H,34,35)/t24-,27+/m1/s1

>  <InChIKey>  (10) 
XUJJWQQLMFLJKO-SQHAQQRYSA-N

>  <SMILES>  (10) 
[H]/N=C(\c1ccc2c(c1)[C@H](C[C@H](N2)c3cc(cc(c3)N)c4ccccc4C(=O)O)c5ccccc5)/N

>  <MissingHeavyAtoms>  (10) 
0

>  <Model>  (10) 
1

>  <AltIds>  (10) 


>  <pKI>  (10) 
7.39

>  <ChemblID>  (10) 
CHEMBL3127485

>  <standardized_canonical_smiles>  (10) 
N=C(N)c1ccc2c(c1)[C@@H](c1ccccc1)C[C@@H](c1cc(N)cc(-c3ccccc3C(=O)O)c1)N2

$$$$
4YT7_4K1_H_301
     RDKit          3D

 39 42  0  0  0  0  0  0  0  0999 V2000
   10.2940   32.5880   27.3060 C   0  0  0  0  0  0  0  0  0  0  0  0
    4.2150   33.1580   23.3380 C   0  0  0  0  0  0  0  0  0  0  0  0
   10.7370   32.2510   29.7470 C   0  0  0  0  0  0  0  0  0  0  0  0
    8.9260   34.9450   27.7910 C   0  0  0  0  0  0  0  0  0  0  0  0
    9.4600   34.2230   28.8410 C   0  0  0  0  0  0  0  0  0  0  0  0
    3.3540   32.1730   22.7550 C   0  0  0  0  0  0  0  0  0  0  0  0
    7.8610   38.0580   22.4140 C   0  0  0  0  0  0  0  0  0  0  0  0
    7.2280   39.0020   23.1720 C   0  0  0  0  0  0  0  0  0  0  0  0
    9.0520   34.4830   26.4850 C   0  0  0  0  0  0  0  0  0  0  0  0
    9.7520   33.3040   26.2500 C   0  0  0  0  0  0  0  0  0  0  0  0
    9.5410   38.1080   18.5000 C   0  0  0  0  0  0  0  0  0  0  0  0
    2.8790   35.3180   30.6680 C   0  0  0  0  0  0  0  0  0  0  0  0
   10.2630   37.6300   19.5760 C   0  0  0  0  0  0  0  0  0  0  0  0
    5.5610   36.1880   27.0630 C   0  0  0  0  0  0  0  0  0  0  0  0
    6.1910   35.8840   25.8650 C   0  0  0  0  0  0  0  0  0  0  0  0
    5.5080   35.0750   24.9660 C   0  0  0  0  0  0  0  0  0  0  0  0
    4.2360   34.6160   25.2650 C   0  0  0  0  0  0  0  0  0  0  0  0
    3.6040   34.9710   26.4470 C   0  0  0  0  0  0  0  0  0  0  0  0
    4.2780   35.7590   27.3690 C   0  0  0  0  0  0  0  0  0  0  0  0
    3.5630   33.6890   24.5100 O   0  0  0  0  0  0  0  0  0  0  0  0
    7.6210   36.3370   25.5860 C   0  0  0  0  0  0  0  0  0  0  0  0
    8.4670   35.1630   25.4130 N   0  0  0  0  0  0  0  0  0  0  0  0
    7.5530   37.1980   24.3620 C   0  0  0  0  0  0  0  0  0  0  0  0
   10.1710   33.0420   28.6180 C   0  0  0  0  0  0  0  0  0  0  0  0
    8.0500   36.9250   23.1730 N   0  0  0  0  0  0  0  0  0  0  0  0
    7.0250   38.4410   24.3880 N   0  0  0  0  0  0  0  0  0  0  0  0
    6.2420   36.9150   27.9720 F   0  0  0  0  0  0  0  0  0  0  0  0
    3.7420   36.1740   28.5760 O   0  0  0  0  0  0  0  0  0  0  0  0
    2.6440   35.4280   29.2060 C   0  0  0  0  0  0  0  0  0  0  0  0
    1.4040   36.1740   28.8970 C   0  0  0  0  0  0  0  0  0  0  0  0
    8.4150   38.0960   21.0470 C   0  0  0  0  0  0  0  0  0  0  0  0
   11.1990   31.0860   29.4950 N   0  0  0  0  0  0  0  0  0  0  0  0
   10.6590   32.7620   30.9930 N   0  0  0  0  0  0  0  0  0  0  0  0
    9.7080   37.6090   20.8420 C   0  0  0  0  0  0  0  0  0  0  0  0
    8.2570   38.5950   18.6790 C   0  0  0  0  0  0  0  0  0  0  0  0
    7.6800   38.5950   19.9510 C   0  0  0  0  0  0  0  0  0  0  0  0
    6.2750   39.0950   20.0820 C   0  0  0  0  0  0  0  0  0  0  0  0
    5.3150   38.3630   19.5340 N   0  0  0  0  0  0  0  0  0  0  0  0
    6.0460   40.1630   20.6930 O   0  0  0  0  0  0  0  0  0  0  0  0
 10  1  2  0
 24  1  1  0
  6  2  1  0
 20  2  1  0
 24  3  1  0
 32  3  2  0
 33  3  1  0
  5  4  1  0
  9  4  2  0
 24  5  2  0
  8  7  2  0
 25  7  1  0
 31  7  1  0
 26  8  1  0
 10  9  1  0
 22  9  1  0
 13 11  2  0
 35 11  1  0
 29 12  1  0
 34 13  1  0
 15 14  2  0
 19 14  1  0
 27 14  1  0
 16 15  1  0
 21 15  1  0
 17 16  2  0
 18 17  1  0
 20 17  1  0
 19 18  2  0
 28 19  1  0
 22 21  1  0
 23 21  1  0
 25 23  2  0
 26 23  1  0
 29 28  1  0
 30 29  1  0
 34 31  2  0
 36 31  1  0
 36 35  2  0
 37 36  1  0
 38 37  1  0
 39 37  2  0
A    1
C13
A    2
C18
A    3
C17
A    4
C16
A    5
C15
A    6
C19
A    7
C21
A    8
C22
A    9
C11
A   10
C12
A   11
C34
A   12
C27
A   13
C33
A   14
C1
A   15
C2
A   16
C3
A   17
C4
A   18
C5
A   19
C6
A   20
O7
A   21
C8
A   22
N9
A   23
C10
A   24
C14
A   25
N20
A   26
N23
A   27
F24
A   28
O25
A   29
C26
A   30
C28
A   31
C29
A   32
N30
A   33
N31
A   34
C32
A   35
C35
A   36
C36
A   37
C37
A   38
N38
A   39
O39
M  END
>  <Id>  (11) 
4YT7_4K1_H_301

>  <ChainId>  (11) 
H

>  <AsymId>  (11) 
C

>  <SeqNum>  (11) 
301

>  <Name>  (11) 
2-[2-[(R)-[(4-carbamimidoylphenyl)amino]-(5-ethoxy-2-fluoranyl-3-propan-2-yloxy-phenyl)methyl]-1H-imidazol-4-yl]benzamide

>  <SystematicName>  (11) 
2-[2-[(R)-[(4-carbamimidoylphenyl)amino]-(5-ethoxy-2-fluoranyl-3-propan-2-yloxy-phenyl)methyl]-1H-imidazol-4-yl]benzamide

>  <Synonyms>  (11) 


>  <Type>  (11) 
NON-POLYMER

>  <Formula>  (11) 
C29 H31 F N6 O3

>  <ObservedFormula>  (11) 
C29 F N6 O3

>  <MolecularWeight>  (11) 
530.593

>  <ModifiedDate>  (11) 
2015-04-24

>  <Parent>  (11) 


>  <OneLetterCode>  (11) 


>  <SubcomponentList>  (11) 


>  <AmbiguousFlag>  (11) 
N

>  <InsertionCode>  (11) 


>  <InstanceId>  (11) 
4YT7_4K1_H_301

>  <ChemCompId>  (11) 
4K1

>  <PdbId>  (11) 
4YT7

>  <ResidueNumber>  (11) 
301

>  <InChI>  (11) 
InChI=1S/C29H31FN6O3/c1-4-38-19-13-22(25(30)24(14-19)39-16(2)3)26(35-18-11-9-17(10-12-18)27(31)32)29-34-15-23(36-29)20-7-5-6-8-21(20)28(33)37/h5-16,26,35H,4H2,1-3H3,(H3,31,32)(H2,33,37)(H,34,36)/t26-/m1/s1

>  <InChIKey>  (11) 
KAQSSNYVMPKBOO-AREMUKBSSA-N

>  <SMILES>  (11) 
[H]/N=C(\c1ccc(cc1)N[C@H](c2cc(cc(c2F)OC(C)C)OCC)c3[nH]cc(n3)c4ccccc4C(=O)N)/N

>  <MissingHeavyAtoms>  (11) 
0

>  <Model>  (11) 
1

>  <AltIds>  (11) 


>  <pKI>  (11) 
8.77

>  <ChemblID>  (11) 
CHEMBL3403479

>  <standardized_canonical_smiles>  (11) 
CCOc1cc(OC(C)C)c(F)c(C(Nc2ccc(C(=N)N)cc2)c2nc(-c3ccccc3C(N)=O)c[nH]2)c1

$$$$
4JYU_1OK_H_301
     RDKit          3D

 38 41  0  0  0  0  0  0  0  0999 V2000
    9.4140   33.7690   28.6870 C   0  0  0  0  0  0  0  0  0  0  0  0
    9.5970   33.3860   27.3270 C   0  0  0  0  0  0  0  0  0  0  0  0
    9.2020   34.1950   26.3030 C   0  0  0  0  0  0  0  0  0  0  0  0
    8.5830   35.4190   26.5570 C   0  0  0  0  0  0  0  0  0  0  0  0
    8.3870   35.8370   27.8580 C   0  0  0  0  0  0  0  0  0  0  0  0
    7.3350   37.3890   25.7060 C   0  0  0  0  0  0  0  0  0  0  0  0
    5.8600   37.0720   25.9150 C   0  0  0  0  0  0  0  0  0  0  0  0
    7.3550   38.2210   24.4690 C   0  0  0  0  0  0  0  0  0  0  0  0
    5.1750   36.3120   24.9660 C   0  0  0  0  0  0  0  0  0  0  0  0
    8.6550   35.4570   30.2890 C   0  0  0  0  0  0  0  0  0  0  0  0
    8.7990   35.0320   28.9480 C   0  0  0  0  0  0  0  0  0  0  0  0
   -0.4390   36.4350   27.0370 C   0  0  0  0  0  0  0  0  0  0  0  0
    3.8140   37.3490   27.1740 C   0  0  0  0  0  0  0  0  0  0  0  0
    0.9740   36.5580   27.4940 C   0  0  0  0  0  0  0  0  0  0  0  0
    6.9920   39.5190   24.6590 N   0  0  0  0  0  0  0  0  0  0  0  0
    6.7880   40.5710   23.4320 S   0  0  0  0  0  0  0  0  0  0  0  0
    5.4640   39.8680   22.4970 C   0  0  0  0  0  0  0  0  0  0  0  0
    4.4300   39.2160   23.1610 C   0  0  0  0  0  0  0  0  0  0  0  0
    3.4110   38.6340   22.4210 C   0  0  0  0  0  0  0  0  0  0  0  0
    3.4130   38.7160   21.0400 C   0  0  0  0  0  0  0  0  0  0  0  0
    4.4330   39.3830   20.3910 C   0  0  0  0  0  0  0  0  0  0  0  0
    5.4710   39.9610   21.1120 C   0  0  0  0  0  0  0  0  0  0  0  0
    9.6950   33.4620   31.0860 N   0  0  0  0  0  0  0  0  0  0  0  0
    9.1200   34.6580   31.2890 C   0  0  0  0  0  0  0  0  0  0  0  0
    9.8430   33.0020   29.8400 C   0  0  0  0  0  0  0  0  0  0  0  0
   10.4320   31.7970   29.6820 N   0  0  0  0  0  0  0  0  0  0  0  0
    8.1420   36.1990   25.4890 N   0  0  0  0  0  0  0  0  0  0  0  0
    3.8220   36.0530   25.1180 C   0  0  0  0  0  0  0  0  0  0  0  0
    3.1260   36.5830   26.2340 C   0  0  0  0  0  0  0  0  0  0  0  0
    5.1700   37.5760   27.0110 C   0  0  0  0  0  0  0  0  0  0  0  0
    1.7840   36.2660   26.3060 O   0  0  0  0  0  0  0  0  0  0  0  0
    3.0950   35.2120   24.3060 O   0  0  0  0  0  0  0  0  0  0  0  0
    3.7410   34.5900   23.1770 C   0  0  0  0  0  0  0  0  0  0  0  0
    2.7630   33.7310   22.5170 C   0  0  0  0  0  0  0  0  0  0  0  0
    1.2940   35.6270   28.6210 C   0  0  0  0  0  0  0  0  0  0  0  0
    7.6950   37.7830   23.3730 O   0  0  0  0  0  0  0  0  0  0  0  0
    6.3120   41.7820   24.0350 O   0  0  0  0  0  0  0  0  0  0  0  0
    7.9670   40.5990   22.6190 O   0  0  0  0  0  0  0  0  0  0  0  0
  2  1  2  0
 11  1  1  0
 25  1  1  0
  3  2  1  0
  4  3  2  0
  5  4  1  0
 27  4  1  0
 11  5  2  0
  7  6  1  0
  8  6  1  0
 27  6  1  0
  9  7  2  0
 30  7  1  0
 15  8  1  0
 36  8  2  0
 28  9  1  0
 11 10  1  0
 24 10  2  0
 14 12  1  0
 29 13  1  0
 30 13  2  0
 31 14  1  0
 35 14  1  0
 16 15  1  0
 17 16  1  0
 37 16  2  0
 38 16  2  0
 18 17  2  0
 22 17  1  0
 19 18  1  0
 20 19  2  0
 21 20  1  0
 22 21  2  0
 24 23  1  0
 25 23  2  0
 26 25  1  0
 29 28  2  0
 32 28  1  0
 31 29  1  0
 33 32  1  0
 34 33  1  0
A    1
C13
A    2
C18
A    3
C17
A    4
C16
A    5
C15
A    6
C21
A    7
C22
A    8
C23
A    9
C24
A   10
C11
A   11
C12
A   12
C34
A   13
C27
A   14
C33
A   15
N1
A   16
S2
A   17
C3
A   18
C4
A   19
C5
A   20
C6
A   21
C7
A   22
C8
A   23
N9
A   24
C10
A   25
C14
A   26
N19
A   27
N20
A   28
C25
A   29
C26
A   30
C28
A   31
O29
A   32
O30
A   33
C31
A   34
C32
A   35
C35
A   36
O36
A   37
O37
A   38
O38
M  END
>  <Id>  (12) 
4JYU_1OK_H_301

>  <ChainId>  (12) 
H

>  <AsymId>  (12) 
C

>  <SeqNum>  (12) 
301

>  <Name>  (12) 
(2R)-2-[(1-aminoisoquinolin-6-yl)amino]-2-[3-ethoxy-4-(propan-2-yloxy)phenyl]-N-(phenylsulfonyl)ethanamide

>  <SystematicName>  (12) 
(2R)-2-[(1-azanylisoquinolin-6-yl)amino]-2-(3-ethoxy-4-propan-2-yloxy-phenyl)-N-(phenylsulfonyl)ethanamide

>  <Synonyms>  (12) 


>  <Type>  (12) 
NON-POLYMER

>  <Formula>  (12) 
C28 H30 N4 O5 S

>  <ObservedFormula>  (12) 
C28 S N4 O5

>  <MolecularWeight>  (12) 
534.627

>  <ModifiedDate>  (12) 
2013-07-19

>  <Parent>  (12) 


>  <OneLetterCode>  (12) 


>  <SubcomponentList>  (12) 


>  <AmbiguousFlag>  (12) 
N

>  <InsertionCode>  (12) 


>  <InstanceId>  (12) 
4JYU_1OK_H_301

>  <ChemCompId>  (12) 
1OK

>  <PdbId>  (12) 
4JYU

>  <ResidueNumber>  (12) 
301

>  <InChI>  (12) 
InChI=1S/C28H30N4O5S/c1-4-36-25-17-20(10-13-24(25)37-18(2)3)26(28(33)32-38(34,35)22-8-6-5-7-9-22)31-21-11-12-23-19(16-21)14-15-30-27(23)29/h5-18,26,31H,4H2,1-3H3,(H2,29,30)(H,32,33)/t26-/m1/s1

>  <InChIKey>  (12) 
ICZUITMFGXCICW-AREMUKBSSA-N

>  <SMILES>  (12) 
CCOc1cc(ccc1OC(C)C)[C@H](C(=O)NS(=O)(=O)c2ccccc2)Nc3ccc4c(c3)ccnc4N

>  <MissingHeavyAtoms>  (12) 
0

>  <Model>  (12) 
1

>  <AltIds>  (12) 


>  <pKI>  (12) 
7.96

>  <ChemblID>  (12) 
CHEMBL3403467

>  <standardized_canonical_smiles>  (12) 
CCOc1cc(OC(C)C)c(F)c(C(Nc2ccc(C(=N)N)cc2)c2nc(-c3ccccc3)c[nH]2)c1

$$$$
4JYV_1OJ_H_301
     RDKit          3D

 41 44  0  0  0  0  0  0  0  0999 V2000
    7.1830   38.2750   24.3170 C   0  0  0  0  0  0  0  0  0  0  0  0
    3.8120   36.2650   25.1010 C   0  0  0  0  0  0  0  0  0  0  0  0
    5.1740   36.4310   24.9260 C   0  0  0  0  0  0  0  0  0  0  0  0
    5.9210   37.1750   25.8340 C   0  0  0  0  0  0  0  0  0  0  0  0
    3.1660   36.8800   26.2050 C   0  0  0  0  0  0  0  0  0  0  0  0
    3.9260   37.5880   27.1350 C   0  0  0  0  0  0  0  0  0  0  0  0
    5.2900   37.7300   26.9400 C   0  0  0  0  0  0  0  0  0  0  0  0
    3.6750   35.0850   23.0230 C   0  0  0  0  0  0  0  0  0  0  0  0
    7.3860   37.4600   25.5340 C   0  0  0  0  0  0  0  0  0  0  0  0
    4.2970   38.9290   20.6590 C   0  0  0  0  0  0  0  0  0  0  0  0
    1.3760   36.2050   28.6360 C   0  0  0  0  0  0  0  0  0  0  0  0
    5.3590   39.5850   21.2700 C   0  0  0  0  0  0  0  0  0  0  0  0
   10.3450   32.3460   29.5310 C   0  0  0  0  0  0  0  0  0  0  0  0
    9.9820   33.0200   30.6280 N   0  0  0  0  0  0  0  0  0  0  0  0
    9.3950   34.1930   30.4580 C   0  0  0  0  0  0  0  0  0  0  0  0
    9.1230   34.7600   29.1950 C   0  0  0  0  0  0  0  0  0  0  0  0
    9.5420   34.0350   28.0550 C   0  0  0  0  0  0  0  0  0  0  0  0
   10.1700   32.7990   28.2590 C   0  0  0  0  0  0  0  0  0  0  0  0
    8.4300   35.9670   29.0170 C   0  0  0  0  0  0  0  0  0  0  0  0
    8.1610   36.4380   27.7740 C   0  0  0  0  0  0  0  0  0  0  0  0
    8.5650   35.7390   26.6360 C   0  0  0  0  0  0  0  0  0  0  0  0
    9.2630   34.5580   26.7690 C   0  0  0  0  0  0  0  0  0  0  0  0
    8.1900   36.2540   25.4010 N   0  0  0  0  0  0  0  0  0  0  0  0
    7.1660   37.7890   23.1930 O   0  0  0  0  0  0  0  0  0  0  0  0
    6.9500   39.5950   24.5930 N   0  0  0  0  0  0  0  0  0  0  0  0
    1.7850   36.8870   26.2050 O   0  0  0  0  0  0  0  0  0  0  0  0
    3.0860   35.4270   24.2880 O   0  0  0  0  0  0  0  0  0  0  0  0
    2.8460   34.2130   22.3970 C   0  0  0  0  0  0  0  0  0  0  0  0
    0.9830   36.1400   27.1830 C   0  0  0  0  0  0  0  0  0  0  0  0
   -0.4230   36.5950   26.9460 C   0  0  0  0  0  0  0  0  0  0  0  0
    6.6090   40.6990   23.4400 S   0  0  0  0  0  0  0  0  0  0  0  0
    6.1860   41.9160   24.0630 O   0  0  0  0  0  0  0  0  0  0  0  0
    7.7490   40.7030   22.5760 O   0  0  0  0  0  0  0  0  0  0  0  0
    5.2300   39.9950   22.5890 C   0  0  0  0  0  0  0  0  0  0  0  0
    3.1130   38.6890   21.3440 C   0  0  0  0  0  0  0  0  0  0  0  0
    2.9910   39.1240   22.6570 C   0  0  0  0  0  0  0  0  0  0  0  0
    4.0480   39.7710   23.2840 C   0  0  0  0  0  0  0  0  0  0  0  0
    1.4500   38.9120   23.5060 S   0  0  0  0  0  0  0  0  0  0  0  0
    1.5910   39.4760   24.8170 O   0  0  0  0  0  0  0  0  0  0  0  0
    1.0700   37.5340   23.3880 O   0  0  0  0  0  0  0  0  0  0  0  0
    0.3340   39.7720   22.7420 N   0  0  0  0  0  0  0  0  0  0  0  0
  9  1  1  0
 24  1  2  0
 25  1  1  0
  3  2  2  0
  5  2  1  0
 27  2  1  0
  4  3  1  0
  7  4  2  0
  9  4  1  0
  6  5  2  0
 26  5  1  0
  7  6  1  0
 27  8  1  0
 28  8  1  0
 23  9  1  0
 12 10  2  0
 35 10  1  0
 29 11  1  0
 34 12  1  0
 14 13  2  0
 18 13  1  0
 15 14  1  0
 16 15  2  0
 17 16  1  0
 19 16  1  0
 18 17  2  0
 22 17  1  0
 20 19  2  0
 21 20  1  0
 22 21  2  0
 23 21  1  0
 31 25  1  0
 29 26  1  0
 30 29  1  0
 32 31  2  0
 33 31  2  0
 34 31  1  0
 37 34  2  0
 36 35  2  0
 37 36  1  0
 38 36  1  0
 39 38  2  0
 40 38  2  0
 41 38  1  0
A    1
C13
A    2
C18
A    3
C17
A    4
C16
A    5
C19
A    6
C20
A    7
C21
A    8
C24
A    9
C12
A   10
C34
A   11
C27
A   12
C33
A   13
C1
A   14
N2
A   15
C3
A   16
C4
A   17
C5
A   18
C6
A   19
C7
A   20
C8
A   21
C9
A   22
C10
A   23
N11
A   24
O14
A   25
N15
A   26
O22
A   27
O23
A   28
C25
A   29
C26
A   30
C28
A   31
S29
A   32
O30
A   33
O31
A   34
C32
A   35
C35
A   36
C36
A   37
C37
A   38
S38
A   39
O39
A   40
O40
A   41
N41
M  END
>  <Id>  (13) 
4JYV_1OJ_H_301

>  <ChainId>  (13) 
H

>  <AsymId>  (13) 
C

>  <SeqNum>  (13) 
301

>  <Name>  (13) 
(2R)-2-[3-ethoxy-4-(propan-2-yloxy)phenyl]-2-(isoquinolin-6-ylamino)-N-[(3-sulfamoylphenyl)sulfonyl]ethanamide

>  <SystematicName>  (13) 
(2R)-2-(3-ethoxy-4-propan-2-yloxy-phenyl)-2-(isoquinolin-6-ylamino)-N-(3-sulfamoylphenyl)sulfonyl-ethanamide

>  <Synonyms>  (13) 


>  <Type>  (13) 
NON-POLYMER

>  <Formula>  (13) 
C28 H30 N4 O7 S2

>  <ObservedFormula>  (13) 
C28 S2 N4 O7

>  <MolecularWeight>  (13) 
598.69

>  <ModifiedDate>  (13) 
2013-07-19

>  <Parent>  (13) 


>  <OneLetterCode>  (13) 


>  <SubcomponentList>  (13) 


>  <AmbiguousFlag>  (13) 
N

>  <InsertionCode>  (13) 


>  <InstanceId>  (13) 
4JYV_1OJ_H_301

>  <ChemCompId>  (13) 
1OJ

>  <PdbId>  (13) 
4JYV

>  <ResidueNumber>  (13) 
301

>  <InChI>  (13) 
InChI=1S/C28H30N4O7S2/c1-4-38-26-15-20(9-11-25(26)39-18(2)3)27(31-22-10-8-21-17-30-13-12-19(21)14-22)28(33)32-41(36,37)24-7-5-6-23(16-24)40(29,34)35/h5-18,27,31H,4H2,1-3H3,(H,32,33)(H2,29,34,35)/t27-/m1/s1

>  <InChIKey>  (13) 
QHVDUHFNSHQJRC-HHHXNRCGSA-N

>  <SMILES>  (13) 
CCOc1cc(ccc1OC(C)C)[C@H](C(=O)NS(=O)(=O)c2cccc(c2)S(=O)(=O)N)Nc3ccc4cnccc4c3

>  <MissingHeavyAtoms>  (13) 
0

>  <Model>  (13) 
1

>  <AltIds>  (13) 


>  <pKI>  (13) 
7.96

>  <ChemblID>  (13) 
CHEMBL3403467

>  <standardized_canonical_smiles>  (13) 
CCOc1cc(OC(C)C)c(F)c(C(Nc2ccc(C(=N)N)cc2)c2nc(-c3ccccc3)c[nH]2)c1

$$$$
4JYU_GOL_H_310
     RDKit          3D

  6  5  0  0  0  0  0  0  0  0999 V2000
   11.9970   40.5990   22.5430 C   0  0  0  0  0  0  0  0  0  0  0  0
   10.6750   41.0870   22.7470 O   0  0  0  0  0  0  0  0  0  0  0  0
   13.0090   41.7200   22.5310 C   0  0  0  0  0  0  0  0  0  0  0  0
   13.6240   41.8130   23.8150 O   0  0  0  0  0  0  0  0  0  0  0  0
   14.0560   41.4790   21.4670 C   0  0  0  0  0  0  0  0  0  0  0  0
   15.3600   41.4590   22.0290 O   0  0  0  0  0  0  0  0  0  0  0  0
  2  1  1  0
  3  1  1  0
  4  3  1  0
  5  3  1  0
  6  5  1  0
A    1
C1
A    2
O1
A    3
C2
A    4
O2
A    5
C3
A    6
O3
M  END
>  <Id>  (14) 
4JYU_GOL_H_310

>  <ChainId>  (14) 
H

>  <AsymId>  (14) 
L

>  <SeqNum>  (14) 
310

>  <Name>  (14) 
GLYCEROL

>  <SystematicName>  (14) 
propane-1,2,3-triol

>  <Synonyms>  (14) 
GLYCERIN; PROPANE-1,2,3-TRIOL

>  <Type>  (14) 
NON-POLYMER

>  <Formula>  (14) 
C3 H8 O3

>  <ObservedFormula>  (14) 
C3 O3

>  <MolecularWeight>  (14) 
92.094

>  <ModifiedDate>  (14) 
2011-06-04

>  <Parent>  (14) 


>  <OneLetterCode>  (14) 


>  <SubcomponentList>  (14) 


>  <AmbiguousFlag>  (14) 
N

>  <InsertionCode>  (14) 


>  <InstanceId>  (14) 
4JYU_GOL_H_310

>  <ChemCompId>  (14) 
GOL

>  <PdbId>  (14) 
4JYU

>  <ResidueNumber>  (14) 
310

>  <InChI>  (14) 
InChI=1S/C3H8O3/c4-1-3(6)2-5/h3-6H,1-2H2

>  <InChIKey>  (14) 
PEDCQBHIVMGVHV-UHFFFAOYSA-N

>  <SMILES>  (14) 
C(C(CO)O)O

>  <MissingHeavyAtoms>  (14) 
0

>  <Model>  (14) 
1

>  <AltIds>  (14) 


>  <pKI>  (14) 
7.96

>  <ChemblID>  (14) 
CHEMBL3403467

>  <standardized_canonical_smiles>  (14) 
CCOc1cc(OC(C)C)c(F)c(C(Nc2ccc(C(=N)N)cc2)c2nc(-c3ccccc3)c[nH]2)c1

$$$$
4JYV_GOL_H_310
     RDKit          3D

  6  5  0  0  0  0  0  0  0  0999 V2000
   14.1810   41.6920   20.7180 C   0  0  0  0  0  0  0  0  0  0  0  0
   12.8390   42.0880   20.9660 O   0  0  0  0  0  0  0  0  0  0  0  0
   15.0730   41.8520   21.9300 C   0  0  0  0  0  0  0  0  0  0  0  0
   14.3470   42.3300   23.0770 O   0  0  0  0  0  0  0  0  0  0  0  0
   16.3070   42.6870   21.6670 C   0  0  0  0  0  0  0  0  0  0  0  0
   16.0380   44.0680   21.4210 O   0  0  0  0  0  0  0  0  0  0  0  0
  2  1  1  0
  3  1  1  0
  4  3  1  0
  5  3  1  0
  6  5  1  0
A    1
C1
A    2
O1
A    3
C2
A    4
O2
A    5
C3
A    6
O3
M  END
>  <Id>  (15) 
4JYV_GOL_H_310

>  <ChainId>  (15) 
H

>  <AsymId>  (15) 
L

>  <SeqNum>  (15) 
310

>  <Name>  (15) 
GLYCEROL

>  <SystematicName>  (15) 
propane-1,2,3-triol

>  <Synonyms>  (15) 
GLYCERIN; PROPANE-1,2,3-TRIOL

>  <Type>  (15) 
NON-POLYMER

>  <Formula>  (15) 
C3 H8 O3

>  <ObservedFormula>  (15) 
C3 O3

>  <MolecularWeight>  (15) 
92.094

>  <ModifiedDate>  (15) 
2011-06-04

>  <Parent>  (15) 


>  <OneLetterCode>  (15) 


>  <SubcomponentList>  (15) 


>  <AmbiguousFlag>  (15) 
N

>  <InsertionCode>  (15) 


>  <InstanceId>  (15) 
4JYV_GOL_H_310

>  <ChemCompId>  (15) 
GOL

>  <PdbId>  (15) 
4JYV

>  <ResidueNumber>  (15) 
310

>  <InChI>  (15) 
InChI=1S/C3H8O3/c4-1-3(6)2-5/h3-6H,1-2H2

>  <InChIKey>  (15) 
PEDCQBHIVMGVHV-UHFFFAOYSA-N

>  <SMILES>  (15) 
C(C(CO)O)O

>  <MissingHeavyAtoms>  (15) 
0

>  <Model>  (15) 
1

>  <AltIds>  (15) 


>  <pKI>  (15) 
7.96

>  <ChemblID>  (15) 
CHEMBL3403467

>  <standardized_canonical_smiles>  (15) 
CCOc1cc(OC(C)C)c(F)c(C(Nc2ccc(C(=N)N)cc2)c2nc(-c3ccccc3)c[nH]2)c1

$$$$
4YT6_4JY_H_301
     RDKit          3D

 36 39  0  0  0  0  0  0  0  0999 V2000
    9.3310   34.2950   28.7430 C   0  0  0  0  0  0  0  0  0  0  0  0
    9.8610   33.5230   29.9000 C   0  0  0  0  0  0  0  0  0  0  0  0
    9.1730   34.6640   26.3590 C   0  0  0  0  0  0  0  0  0  0  0  0
    3.6550   34.5520   22.9310 C   0  0  0  0  0  0  0  0  0  0  0  0
    2.8170   33.5790   22.2640 C   0  0  0  0  0  0  0  0  0  0  0  0
    1.6990   36.5460   28.7330 C   0  0  0  0  0  0  0  0  0  0  0  0
    8.0510   36.1470   27.8720 C   0  0  0  0  0  0  0  0  0  0  0  0
    8.5270   35.4130   28.9390 C   0  0  0  0  0  0  0  0  0  0  0  0
    9.4970   39.6360   18.7660 C   0  0  0  0  0  0  0  0  0  0  0  0
   10.0830   38.9680   19.8160 C   0  0  0  0  0  0  0  0  0  0  0  0
    7.8210   36.4780   25.4900 N   0  0  0  0  0  0  0  0  0  0  0  0
    6.9400   37.6340   25.6170 C   0  0  0  0  0  0  0  0  0  0  0  0
    5.4860   37.1780   25.7310 C   0  0  0  0  0  0  0  0  0  0  0  0
    7.0100   38.5320   24.4190 C   0  0  0  0  0  0  0  0  0  0  0  0
    4.7290   37.4820   26.8530 C   0  0  0  0  0  0  0  0  0  0  0  0
    3.4380   37.0190   27.0380 C   0  0  0  0  0  0  0  0  0  0  0  0
    2.8490   36.2590   26.0370 C   0  0  0  0  0  0  0  0  0  0  0  0
    3.5950   35.9150   24.9180 C   0  0  0  0  0  0  0  0  0  0  0  0
    4.8930   36.3770   24.7570 C   0  0  0  0  0  0  0  0  0  0  0  0
    8.3560   35.7740   26.5700 C   0  0  0  0  0  0  0  0  0  0  0  0
    9.6560   33.9360   27.4350 C   0  0  0  0  0  0  0  0  0  0  0  0
    2.8650   37.2930   28.2620 O   0  0  0  0  0  0  0  0  0  0  0  0
    9.7240   34.0510   31.1370 N   0  0  0  0  0  0  0  0  0  0  0  0
   10.3550   32.3570   29.6630 N   0  0  0  0  0  0  0  0  0  0  0  0
    5.2610   38.3100   27.7730 F   0  0  0  0  0  0  0  0  0  0  0  0
    2.9680   34.9970   24.1040 O   0  0  0  0  0  0  0  0  0  0  0  0
    1.7530   36.4150   30.2240 C   0  0  0  0  0  0  0  0  0  0  0  0
    0.5180   37.3360   28.2730 C   0  0  0  0  0  0  0  0  0  0  0  0
    6.1740   39.5780   24.2330 N   0  0  0  0  0  0  0  0  0  0  0  0
    6.4840   40.1310   23.0270 C   0  0  0  0  0  0  0  0  0  0  0  0
    7.5390   39.4170   22.5360 C   0  0  0  0  0  0  0  0  0  0  0  0
    7.8540   38.4010   23.4120 N   0  0  0  0  0  0  0  0  0  0  0  0
    8.2040   39.4810   21.2260 C   0  0  0  0  0  0  0  0  0  0  0  0
    9.4190   38.8390   21.0210 C   0  0  0  0  0  0  0  0  0  0  0  0
    8.2540   40.2110   18.9280 C   0  0  0  0  0  0  0  0  0  0  0  0
    7.6140   40.1530   20.1570 C   0  0  0  0  0  0  0  0  0  0  0  0
  2  1  1  0
  8  1  2  0
 21  1  1  0
 23  2  1  0
 24  2  2  0
 20  3  1  0
 21  3  2  0
  5  4  1  0
 26  4  1  0
 22  6  1  0
 27  6  1  0
 28  6  1  0
  8  7  1  0
 20  7  2  0
 10  9  2  0
 35  9  1  0
 34 10  1  0
 12 11  1  0
 20 11  1  0
 13 12  1  0
 14 12  1  0
 15 13  2  0
 19 13  1  0
 29 14  1  0
 32 14  2  0
 16 15  1  0
 25 15  1  0
 17 16  2  0
 22 16  1  0
 18 17  1  0
 19 18  2  0
 26 18  1  0
 30 29  1  0
 31 30  2  0
 32 31  1  0
 33 31  1  0
 34 33  2  0
 36 33  1  0
 36 35  2  0
A    1
C13
A    2
C16
A    3
C15
A    4
C22
A    5
C23
A    6
C24
A    7
C11
A    8
C12
A    9
C34
A   10
C33
A   11
N1
A   12
C2
A   13
C3
A   14
C4
A   15
C5
A   16
C6
A   17
C7
A   18
C8
A   19
C9
A   20
C10
A   21
C14
A   22
O17
A   23
N18
A   24
N19
A   25
F20
A   26
O21
A   27
C25
A   28
C26
A   29
N27
A   30
C28
A   31
C29
A   32
N30
A   33
C31
A   34
C32
A   35
C35
A   36
C36
M  END
>  <Id>  (16) 
4YT6_4JY_H_301

>  <ChainId>  (16) 
H

>  <AsymId>  (16) 
C

>  <SeqNum>  (16) 
301

>  <Name>  (16) 
4-[[(R)-(5-ethoxy-2-fluoranyl-3-propan-2-yloxy-phenyl)-(4-phenyl-1H-imidazol-2-yl)methyl]amino]benzenecarboximidamide

>  <SystematicName>  (16) 
4-[[(R)-(5-ethoxy-2-fluoranyl-3-propan-2-yloxy-phenyl)-(4-phenyl-1H-imidazol-2-yl)methyl]amino]benzenecarboximidamide

>  <Synonyms>  (16) 


>  <Type>  (16) 
NON-POLYMER

>  <Formula>  (16) 
C28 H30 F N5 O2

>  <ObservedFormula>  (16) 
C28 F N5 O2

>  <MolecularWeight>  (16) 
487.569

>  <ModifiedDate>  (16) 
2015-04-24

>  <Parent>  (16) 


>  <OneLetterCode>  (16) 


>  <SubcomponentList>  (16) 


>  <AmbiguousFlag>  (16) 
N

>  <InsertionCode>  (16) 


>  <InstanceId>  (16) 
4YT6_4JY_H_301

>  <ChemCompId>  (16) 
4JY

>  <PdbId>  (16) 
4YT6

>  <ResidueNumber>  (16) 
301

>  <InChI>  (16) 
InChI=1S/C28H30FN5O2/c1-4-35-21-14-22(25(29)24(15-21)36-17(2)3)26(33-20-12-10-19(11-13-20)27(30)31)28-32-16-23(34-28)18-8-6-5-7-9-18/h5-17,26,33H,4H2,1-3H3,(H3,30,31)(H,32,34)/t26-/m1/s1

>  <InChIKey>  (16) 
FEJKACPKVXNBAK-AREMUKBSSA-N

>  <SMILES>  (16) 
[H]/N=C(\c1ccc(cc1)N[C@H](c2cc(cc(c2F)OC(C)C)OCC)c3[nH]cc(n3)c4ccccc4)/N

>  <MissingHeavyAtoms>  (16) 
0

>  <Model>  (16) 
1

>  <AltIds>  (16) 


>  <pKI>  (16) 
7.96

>  <ChemblID>  (16) 
CHEMBL3403467

>  <standardized_canonical_smiles>  (16) 
CCOc1cc(OC(C)C)c(F)c(C(Nc2ccc(C(=N)N)cc2)c2nc(-c3ccccc3)c[nH]2)c1

$$$$
4JYU_SO4_H_306
     RDKit          3D

  5  4  0  0  0  0  0  0  0  0999 V2000
   14.7590   16.7840    8.7120 S   0  0  0  0  0  0  0  0  0  0  0  0
   13.6440   15.8360    8.7760 O   0  0  0  0  0  0  0  0  0  0  0  0
   14.8430   17.3480    7.3630 O   0  0  0  0  0  0  0  0  0  0  0  0
   16.0080   16.0880    9.0170 O   0  0  0  0  0  0  0  0  0  0  0  0
   14.5330   17.8520    9.6810 O   0  0  0  0  0  0  0  0  0  0  0  0
  2  1  2  0
  3  1  2  0
  4  1  1  0
  5  1  1  0
M  CHG  2   4  -1   5  -1
A    1
S
A    2
O1
A    3
O2
A    4
O3
A    5
O4
M  END
>  <Id>  (17) 
4JYU_SO4_H_306

>  <ChainId>  (17) 
H

>  <AsymId>  (17) 
H

>  <SeqNum>  (17) 
306

>  <Name>  (17) 
SULFATE ION

>  <SystematicName>  (17) 
sulfate

>  <Synonyms>  (17) 


>  <Type>  (17) 
NON-POLYMER

>  <Formula>  (17) 
O4 S

>  <ObservedFormula>  (17) 
S O4

>  <MolecularWeight>  (17) 
96.063

>  <ModifiedDate>  (17) 
2011-06-04

>  <Parent>  (17) 


>  <OneLetterCode>  (17) 


>  <SubcomponentList>  (17) 


>  <AmbiguousFlag>  (17) 
N

>  <InsertionCode>  (17) 


>  <InstanceId>  (17) 
4JYU_SO4_H_306

>  <ChemCompId>  (17) 
SO4

>  <PdbId>  (17) 
4JYU

>  <ResidueNumber>  (17) 
306

>  <InChI>  (17) 
InChI=1S/H2O4S/c1-5(2,3)4/h(H2,1,2,3,4)/p-2

>  <InChIKey>  (17) 
QAOWNCQODCNURD-UHFFFAOYSA-L

>  <SMILES>  (17) 
[O-]S(=O)(=O)[O-]

>  <MissingHeavyAtoms>  (17) 
0

>  <Model>  (17) 
1

>  <AltIds>  (17) 


>  <pKI>  (17) 
7.96

>  <ChemblID>  (17) 
CHEMBL3403467

>  <standardized_canonical_smiles>  (17) 
CCOc1cc(OC(C)C)c(F)c(C(Nc2ccc(C(=N)N)cc2)c2nc(-c3ccccc3)c[nH]2)c1

$$$$
4JYV_SO4_H_306
     RDKit          3D

  5  4  0  0  0  0  0  0  0  0999 V2000
   14.7910   16.8770    8.6180 S   0  0  0  0  0  0  0  0  0  0  0  0
   16.2280   16.9630    8.4040 O   0  0  0  0  0  0  0  0  0  0  0  0
   14.0930   17.2370    7.3790 O   0  0  0  0  0  0  0  0  0  0  0  0
   14.4400   15.5070    8.9910 O   0  0  0  0  0  0  0  0  0  0  0  0
   14.4070   17.7880    9.6970 O   0  0  0  0  0  0  0  0  0  0  0  0
  2  1  2  0
  3  1  2  0
  4  1  1  0
  5  1  1  0
M  CHG  2   4  -1   5  -1
A    1
S
A    2
O1
A    3
O2
A    4
O3
A    5
O4
M  END
>  <Id>  (18) 
4JYV_SO4_H_306

>  <ChainId>  (18) 
H

>  <AsymId>  (18) 
H

>  <SeqNum>  (18) 
306

>  <Name>  (18) 
SULFATE ION

>  <SystematicName>  (18) 
sulfate

>  <Synonyms>  (18) 


>  <Type>  (18) 
NON-POLYMER

>  <Formula>  (18) 
O4 S

>  <ObservedFormula>  (18) 
S O4

>  <MolecularWeight>  (18) 
96.063

>  <ModifiedDate>  (18) 
2011-06-04

>  <Parent>  (18) 


>  <OneLetterCode>  (18) 


>  <SubcomponentList>  (18) 


>  <AmbiguousFlag>  (18) 
N

>  <InsertionCode>  (18) 


>  <InstanceId>  (18) 
4JYV_SO4_H_306

>  <ChemCompId>  (18) 
SO4

>  <PdbId>  (18) 
4JYV

>  <ResidueNumber>  (18) 
306

>  <InChI>  (18) 
InChI=1S/H2O4S/c1-5(2,3)4/h(H2,1,2,3,4)/p-2

>  <InChIKey>  (18) 
QAOWNCQODCNURD-UHFFFAOYSA-L

>  <SMILES>  (18) 
[O-]S(=O)(=O)[O-]

>  <MissingHeavyAtoms>  (18) 
0

>  <Model>  (18) 
1

>  <AltIds>  (18) 


>  <pKI>  (18) 
7.96

>  <ChemblID>  (18) 
CHEMBL3403467

>  <standardized_canonical_smiles>  (18) 
CCOc1cc(OC(C)C)c(F)c(C(Nc2ccc(C(=N)N)cc2)c2nc(-c3ccccc3)c[nH]2)c1

$$$$
1YGC_905_H_1
     RDKit          3D

 38 40  0  0  0  0  0  0  0  0999 V2000
   11.7260   38.9400   27.7690 O   0  0  0  0  0  0  0  0  0  0  0  0
   12.2260   38.6600   29.1430 C   0  0  0  0  0  0  0  0  0  0  0  0
   11.5030   39.1320   30.2560 C   0  0  0  0  0  0  0  0  0  0  0  0
   11.9720   38.8700   31.5710 C   0  0  0  0  0  0  0  0  0  0  0  0
   11.2170   39.3730   32.6990 N   0  0  0  0  0  0  0  0  0  0  0  0
    9.9900   40.1450   32.4640 C   0  0  0  0  0  0  0  0  0  0  0  0
    9.1220   40.2060   33.6840 C   0  0  0  0  0  0  0  0  0  0  0  0
    9.4600   39.6850   34.7550 O   0  0  0  0  0  0  0  0  0  0  0  0
    7.9750   40.8520   33.5540 N   0  0  0  0  0  0  0  0  0  0  0  0
    6.8740   41.0420   34.7960 S   0  0  0  0  0  0  0  0  0  0  0  0
    6.6940   39.7880   35.4670 O   0  0  0  0  0  0  0  0  0  0  0  0
    5.6430   41.5490   34.2790 O   0  0  0  0  0  0  0  0  0  0  0  0
    7.6010   42.2020   35.8630 C   0  0  0  0  0  0  0  0  0  0  0  0
    7.4210   42.1260   37.2710 C   0  0  0  0  0  0  0  0  0  0  0  0
    8.0430   43.1110   38.1080 C   0  0  0  0  0  0  0  0  0  0  0  0
    8.8330   44.1520   37.5280 C   0  0  0  0  0  0  0  0  0  0  0  0
    9.0090   44.2170   36.1150 C   0  0  0  0  0  0  0  0  0  0  0  0
    9.7480   45.1880   35.5680 N   0  0  0  0  0  0  0  0  0  0  0  0
    8.3940   43.2450   35.2870 C   0  0  0  0  0  0  0  0  0  0  0  0
   10.4210   41.6170   32.1940 C   0  0  0  0  0  0  0  0  0  0  0  0
   10.0160   42.2660   30.9990 C   0  0  0  0  0  0  0  0  0  0  0  0
    9.2580   41.6260   30.0960 F   0  0  0  0  0  0  0  0  0  0  0  0
   10.4050   43.5880   30.7500 C   0  0  0  0  0  0  0  0  0  0  0  0
    9.9820   44.2400   29.4940 O   0  0  0  0  0  0  0  0  0  0  0  0
   10.6270   45.6530   29.3720 C   0  0  0  0  0  0  0  0  0  0  0  0
   10.2300   46.2620   28.0270 C   0  0  0  0  0  0  0  0  0  0  0  0
   11.2030   44.2880   31.6810 C   0  0  0  0  0  0  0  0  0  0  0  0
   11.6170   43.6680   32.8750 C   0  0  0  0  0  0  0  0  0  0  0  0
   12.4600   44.4650   33.8020 O   0  0  0  0  0  0  0  0  0  0  0  0
   12.9390   43.6620   35.0230 C   0  0  0  0  0  0  0  0  0  0  0  0
   13.9970   44.5050   35.7280 C   0  0  0  0  0  0  0  0  0  0  0  0
   11.2340   42.3210   33.1480 C   0  0  0  0  0  0  0  0  0  0  0  0
   13.1640   38.1350   31.7720 C   0  0  0  0  0  0  0  0  0  0  0  0
   13.8970   37.6620   30.6540 C   0  0  0  0  0  0  0  0  0  0  0  0
   13.4380   37.9210   29.3410 C   0  0  0  0  0  0  0  0  0  0  0  0
   14.2090   37.4230   28.1890 C   0  0  0  0  0  0  0  0  0  0  0  0
   15.3340   36.7390   28.3840 N   0  0  0  0  0  0  0  0  0  0  0  0
   13.7820   37.6560   26.9580 N   0  0  0  0  0  0  0  0  0  0  0  0
  2  1  1  0
  3  2  2  0
 35  2  1  0
  4  3  1  0
  5  4  1  0
 33  4  2  0
  6  5  1  0
  7  6  1  0
 20  6  1  0
  8  7  2  0
  9  7  1  0
 10  9  1  0
 11 10  2  0
 12 10  2  0
 13 10  1  0
 14 13  2  0
 19 13  1  0
 15 14  1  0
 16 15  2  0
 17 16  1  0
 18 17  1  0
 19 17  2  0
 21 20  2  0
 32 20  1  0
 22 21  1  0
 23 21  1  0
 24 23  1  0
 27 23  2  0
 25 24  1  0
 26 25  1  0
 28 27  1  0
 29 28  1  0
 32 28  2  0
 30 29  1  0
 31 30  1  0
 34 33  1  0
 35 34  2  0
 36 35  1  0
 37 36  2  0
 38 36  1  0
A    1
O1
A    2
C1
A    3
C2
A    4
C3
A    5
N1
A    6
C4
A    7
C5
A    8
O2
A    9
N2
A   10
S1
A   11
O3
A   12
O4
A   13
C6
A   14
C7
A   15
C8
A   16
C9
A   17
C10
A   18
N3
A   19
C11
A   20
C12
A   21
C13
A   22
F1
A   23
C14
A   24
O5
A   25
C15
A   26
C16
A   27
C17
A   28
C18
A   29
O6
A   30
C19
A   31
C20
A   32
C21
A   33
C22
A   34
C23
A   35
C24
A   36
C25
A   37
N4
A   38
N5
M  END
>  <Id>  (19) 
1YGC_905_H_1

>  <ChainId>  (19) 
H

>  <AsymId>  (19) 
K

>  <SeqNum>  (19) 
1

>  <Name>  (19) 
(R)-4-[2-(3-AMINO-BENZENESULFONYLAMINO)-1-(3,5-DIETHOXY-2-FLUOROPHENYL)-2-OXO-ETHYLAMINO]-2-HYDROXY-BENZAMIDINE

>  <SystematicName>  (19) 
(2R)-N-(3-aminophenyl)sulfonyl-2-[(4-carbamimidoyl-3-hydroxy-phenyl)amino]-2-(3,5-diethoxy-2-fluoro-phenyl)ethanamide

>  <Synonyms>  (19) 


>  <Type>  (19) 
NON-POLYMER

>  <Formula>  (19) 
C25 H28 F N5 O6 S

>  <ObservedFormula>  (19) 
C25 S F N5 O6

>  <MolecularWeight>  (19) 
545.583

>  <ModifiedDate>  (19) 
2011-06-04

>  <Parent>  (19) 


>  <OneLetterCode>  (19) 


>  <SubcomponentList>  (19) 


>  <AmbiguousFlag>  (19) 
N

>  <InsertionCode>  (19) 


>  <InstanceId>  (19) 
1YGC_905_H_1

>  <ChemCompId>  (19) 
905

>  <PdbId>  (19) 
1YGC

>  <ResidueNumber>  (19) 
1

>  <InChI>  (19) 
InChI=1S/C25H28FN5O6S/c1-3-36-16-12-19(22(26)21(13-16)37-4-2)23(30-15-8-9-18(24(28)29)20(32)11-15)25(33)31-38(34,35)17-7-5-6-14(27)10-17/h5-13,23,30,32H,3-4,27H2,1-2H3,(H3,28,29)(H,31,33)/t23-/m1/s1

>  <InChIKey>  (19) 
MLPXCKVDBGAVRJ-HSZRJFAPSA-N

>  <SMILES>  (19) 
[H]/N=C(/c1ccc(cc1O)N[C@H](c2cc(cc(c2F)OCC)OCC)C(=O)NS(=O)(=O)c3cccc(c3)N)\N

>  <MissingHeavyAtoms>  (19) 
0

>  <Model>  (19) 
1

>  <AltIds>  (19) 


>  <pKI>  (19) 
9.46

>  <ChemblID>  (19) 
CHEMBL1230642

>  <standardized_canonical_smiles>  (19) 
CCOc1cc(OCC)c(F)c([C@@H](Nc2ccc(C(=N)N)c(O)c2)C(=O)NS(=O)(=O)c2cccc(N)c2)c1

$$$$
5L2Y_70D_H_301
     RDKit          3D

 46 51  0  0  0  0  0  0  0  0999 V2000
    7.3630   38.0210   24.3090 C   0  0  0  0  0  0  0  0  0  0  0  0
    9.4670   33.2600   27.3060 C   0  0  0  0  0  0  0  0  0  0  0  0
    9.2840   33.6210   28.6650 C   0  0  0  0  0  0  0  0  0  0  0  0
    8.6300   34.8650   28.9510 C   0  0  0  0  0  0  0  0  0  0  0  0
    8.1840   35.6720   27.8740 C   0  0  0  0  0  0  0  0  0  0  0  0
    9.0320   34.0660   26.3020 C   0  0  0  0  0  0  0  0  0  0  0  0
    8.4800   35.2440   30.3000 C   0  0  0  0  0  0  0  0  0  0  0  0
    9.0020   34.4020   31.3140 C   0  0  0  0  0  0  0  0  0  0  0  0
    9.7610   32.8300   29.7820 C   0  0  0  0  0  0  0  0  0  0  0  0
    0.7070   35.6700   26.8300 C   0  0  0  0  0  0  0  0  0  0  0  0
    6.0660   39.6310   21.9610 C   0  0  0  0  0  0  0  0  0  0  0  0
    1.3530   35.9550   25.4650 C   0  0  0  0  0  0  0  0  0  0  0  0
    0.6140   37.1550   24.8010 C   0  0  0  0  0  0  0  0  0  0  0  0
    2.8730   36.1570   25.5340 C   0  0  0  0  0  0  0  0  0  0  0  0
    3.4210   36.9060   26.5750 C   0  0  0  0  0  0  0  0  0  0  0  0
    4.7730   37.2040   26.6020 C   0  0  0  0  0  0  0  0  0  0  0  0
    5.6160   36.7730   25.5900 C   0  0  0  0  0  0  0  0  0  0  0  0
    5.0750   36.0090   24.5610 C   0  0  0  0  0  0  0  0  0  0  0  0
    3.7210   35.6820   24.5180 C   0  0  0  0  0  0  0  0  0  0  0  0
    3.2380   34.7660   23.4040 C   0  0  0  0  0  0  0  0  0  0  0  0
    7.0840   37.1770   25.5560 C   0  0  0  0  0  0  0  0  0  0  0  0
    7.9670   36.0290   25.4800 N   0  0  0  0  0  0  0  0  0  0  0  0
    8.3800   35.2700   26.5670 C   0  0  0  0  0  0  0  0  0  0  0  0
    9.6270   33.2510   31.0620 N   0  0  0  0  0  0  0  0  0  0  0  0
    7.8630   37.4710   23.3360 O   0  0  0  0  0  0  0  0  0  0  0  0
    6.9940   39.3210   24.2530 N   0  0  0  0  0  0  0  0  0  0  0  0
    7.1380   39.9980   22.9640 C   0  0  0  0  0  0  0  0  0  0  0  0
    6.2170   39.8630   20.5810 C   0  0  0  0  0  0  0  0  0  0  0  0
    5.1410   39.5700   19.7440 C   0  0  0  0  0  0  0  0  0  0  0  0
    3.9620   39.0280   20.2290 C   0  0  0  0  0  0  0  0  0  0  0  0
    3.7960   38.8310   21.5900 C   0  0  0  0  0  0  0  0  0  0  0  0
    4.8620   39.1050   22.4440 C   0  0  0  0  0  0  0  0  0  0  0  0
    2.5620   38.3020   22.0540 N   0  0  0  0  0  0  0  0  0  0  0  0
    1.1330   37.3690   23.4650 O   0  0  0  0  0  0  0  0  0  0  0  0
    2.1120   38.2900   23.3310 C   0  0  0  0  0  0  0  0  0  0  0  0
    2.4630   39.0470   24.2050 O   0  0  0  0  0  0  0  0  0  0  0  0
    6.4040   40.0970   25.3450 C   0  0  0  0  0  0  0  0  0  0  0  0
   10.3580   31.6360   29.6110 N   0  0  0  0  0  0  0  0  0  0  0  0
    7.5370   40.3490   19.9440 C   0  0  0  0  0  0  0  0  0  0  0  0
    7.7970   36.3770   30.6020 F   0  0  0  0  0  0  0  0  0  0  0  0
    7.9320   41.7170   20.5600 C   0  0  0  0  0  0  0  0  0  0  0  0
    7.7640   40.3440   18.3990 C   0  0  0  0  0  0  0  0  0  0  0  0
    9.1340   39.7010   18.6220 C   0  0  0  0  0  0  0  0  0  0  0  0
    8.6570   39.2640   20.0070 C   0  0  0  0  0  0  0  0  0  0  0  0
    6.9740   42.5870   20.5640 O   0  0  0  0  0  0  0  0  0  0  0  0
    9.0500   41.9520   20.9890 O   0  0  0  0  0  0  0  0  0  0  0  0
 21  1  1  0
 25  1  2  0
 26  1  1  0
  3  2  2  0
  6  2  1  0
  4  3  1  0
  9  3  1  0
  5  4  2  0
  7  4  1  0
 23  5  1  0
 23  6  2  0
  8  7  2  0
 40  7  1  0
 24  8  1  0
 24  9  2  0
 38  9  1  0
 12 10  1  0
 27 11  1  0
 28 11  2  0
 32 11  1  0
 13 12  1  0
 14 12  1  0
 34 13  1  0
 15 14  2  0
 19 14  1  0
 16 15  1  0
 17 16  2  0
 18 17  1  0
 21 17  1  0
 19 18  2  0
 20 19  1  0
 22 21  1  0
 23 22  1  0
 27 26  1  0
 37 26  1  0
 29 28  1  0
 39 28  1  0
 30 29  2  0
 31 30  1  0
 32 31  2  0
 33 31  1  0
 35 33  1  0
 35 34  1  0
 36 35  2  0
 41 39  1  0
 42 39  1  0
 44 39  1  0
 45 41  1  0
 46 41  2  0
 43 42  1  0
 44 43  1  0
A    1
C13
A    2
C18
A    3
C17
A    4
C16
A    5
C15
A    6
C19
A    7
C20
A    8
C21
A    9
C23
A   10
C11
A   11
C27
A   12
C1
A   13
C2
A   14
C3
A   15
C4
A   16
C5
A   17
C6
A   18
C7
A   19
C8
A   20
C9
A   21
C10
A   22
N12
A   23
C14
A   24
N22
A   25
O24
A   26
N25
A   27
C26
A   28
C28
A   29
C29
A   30
C30
A   31
C31
A   32
C32
A   33
N33
A   34
O34
A   35
C35
A   36
O36
A   37
C37
A   38
N38
A   39
C39
A   40
F40
A   41
C41
A   42
C42
A   43
C43
A   44
C44
A   45
O45
A   46
O46
M  END
>  <Id>  (20) 
5L2Y_70D_H_301

>  <ChainId>  (20) 
H

>  <AsymId>  (20) 
C

>  <SeqNum>  (20) 
301

>  <Name>  (20) 
1-[(2R,15R)-2-[(1-amino-4-fluoroisoquinolin-6-yl)amino]-4,15,17-trimethyl-3,12-dioxo-13-oxa-4,11-diazatricyclo[14.2.2.1~6,10~]henicosa-1(18),6(21),7,9,16,19-hexaen-7-yl]cyclobutane-1-carboxylic acid

>  <SystematicName>  (20) 
1-[(2~{R},15~{R})-2-[(1-azanyl-4-fluoranyl-isoquinolin-6-yl)amino]-4,15,17-trimethyl-3,12-bis(oxidanylidene)-13-oxa-4,11-diazatricyclo[14.2.2.1^{6,10}]henicosa-1(19),6,8,10(21),16(20),17-hexaen-7-yl]cyclobutane-1-carboxylic acid

>  <Synonyms>  (20) 


>  <Type>  (20) 
NON-POLYMER

>  <Formula>  (20) 
C35 H36 F N5 O5

>  <ObservedFormula>  (20) 
C35 F N5 O5

>  <MolecularWeight>  (20) 
625.689

>  <ModifiedDate>  (20) 
2016-09-23

>  <Parent>  (20) 


>  <OneLetterCode>  (20) 


>  <SubcomponentList>  (20) 


>  <AmbiguousFlag>  (20) 
N

>  <InsertionCode>  (20) 


>  <InstanceId>  (20) 
5L2Y_70D_H_301

>  <ChemCompId>  (20) 
70D

>  <PdbId>  (20) 
5L2Y

>  <ResidueNumber>  (20) 
301

>  <InChI>  (20) 
InChI=1S/C35H36FN5O5/c1-19-13-21-5-8-25(19)20(2)18-46-34(45)40-23-7-10-28(35(33(43)44)11-4-12-35)22(14-23)17-41(3)32(42)30(21)39-24-6-9-26-27(15-24)29(36)16-38-31(26)37/h5-10,13-16,20,30,39H,4,11-12,17-18H2,1-3H3,(H2,37,38)(H,40,45)(H,43,44)/t20-,30+/m0/s1

>  <InChIKey>  (20) 
PROYMPSAMYSXNO-WENCNXQZSA-N

>  <SMILES>  (20) 
Cc1cc2ccc1[C@H](COC(=O)Nc3ccc(c(c3)CN(C(=O)[C@@H]2Nc4ccc5c(c4)c(cnc5N)F)C)C6(CCC6)C(=O)O)C

>  <MissingHeavyAtoms>  (20) 
0

>  <Model>  (20) 
1

>  <AltIds>  (20) 


>  <pKI>  (20) 
9.85

>  <ChemblID>  (20) 
-

>  <standardized_canonical_smiles>  (20) 
Cc1cc2ccc1[C@@H](C)COC(=O)Nc1ccc(C3(C(=O)O)CCC3)c(c1)CN(C)C(=O)[C@@H]2Nc1ccc2c(N)ncc(F)c2c1

$$$$
5L2Z_70C_H_301
     RDKit          3D

 48 53  0  0  0  0  0  0  0  0999 V2000
    7.8880   36.3470   24.3690 C   0  0  0  0  0  0  0  0  0  0  0  0
   10.2560   31.5940   27.1760 C   0  0  0  0  0  0  0  0  0  0  0  0
   10.1730   31.9600   28.5420 C   0  0  0  0  0  0  0  0  0  0  0  0
    9.5780   33.2210   28.8670 C   0  0  0  0  0  0  0  0  0  0  0  0
    9.1070   34.0510   27.8210 C   0  0  0  0  0  0  0  0  0  0  0  0
    9.8000   32.4250   26.2000 C   0  0  0  0  0  0  0  0  0  0  0  0
    9.4980   33.5900   30.2380 C   0  0  0  0  0  0  0  0  0  0  0  0
   10.0260   32.7260   31.2070 C   0  0  0  0  0  0  0  0  0  0  0  0
   10.6920   31.1520   29.6270 C   0  0  0  0  0  0  0  0  0  0  0  0
    1.5560   34.0040   27.5080 C   0  0  0  0  0  0  0  0  0  0  0  0
    6.3960   37.9980   22.1870 C   0  0  0  0  0  0  0  0  0  0  0  0
    2.0520   34.2460   26.0710 C   0  0  0  0  0  0  0  0  0  0  0  0
    1.2230   35.4290   25.4380 C   0  0  0  0  0  0  0  0  0  0  0  0
    3.5720   34.4410   26.0010 C   0  0  0  0  0  0  0  0  0  0  0  0
    4.2200   35.1650   27.0020 C   0  0  0  0  0  0  0  0  0  0  0  0
    5.5730   35.4470   26.9150 C   0  0  0  0  0  0  0  0  0  0  0  0
    6.3140   35.0380   25.8170 C   0  0  0  0  0  0  0  0  0  0  0  0
    5.6770   34.2860   24.8370 C   0  0  0  0  0  0  0  0  0  0  0  0
    4.3220   33.9740   24.9080 C   0  0  0  0  0  0  0  0  0  0  0  0
    3.7180   33.1620   23.7860 C   0  0  0  0  0  0  0  0  0  0  0  0
    7.7550   35.4900   25.6170 C   0  0  0  0  0  0  0  0  0  0  0  0
    8.6820   34.3870   25.4530 N   0  0  0  0  0  0  0  0  0  0  0  0
    9.2030   33.6440   26.5050 C   0  0  0  0  0  0  0  0  0  0  0  0
   10.6060   31.5560   30.9200 N   0  0  0  0  0  0  0  0  0  0  0  0
    8.3280   35.8280   23.3490 O   0  0  0  0  0  0  0  0  0  0  0  0
    7.5100   37.6470   24.3820 N   0  0  0  0  0  0  0  0  0  0  0  0
    7.5310   38.3760   23.1150 C   0  0  0  0  0  0  0  0  0  0  0  0
    6.4360   38.2130   20.7950 C   0  0  0  0  0  0  0  0  0  0  0  0
    5.3310   37.8200   20.0430 C   0  0  0  0  0  0  0  0  0  0  0  0
    4.2260   37.2220   20.6130 C   0  0  0  0  0  0  0  0  0  0  0  0
    4.1550   37.0670   21.9850 C   0  0  0  0  0  0  0  0  0  0  0  0
    5.2570   37.4250   22.7570 C   0  0  0  0  0  0  0  0  0  0  0  0
    2.9520   36.5680   22.5420 N   0  0  0  0  0  0  0  0  0  0  0  0
    1.6160   35.6500   24.0570 O   0  0  0  0  0  0  0  0  0  0  0  0
    2.6040   36.5520   23.8530 C   0  0  0  0  0  0  0  0  0  0  0  0
    3.0630   37.2690   24.7130 O   0  0  0  0  0  0  0  0  0  0  0  0
    6.9890   38.3730   25.5400 C   0  0  0  0  0  0  0  0  0  0  0  0
   11.3020   29.9650   29.4120 N   0  0  0  0  0  0  0  0  0  0  0  0
    7.6620   38.7930   20.0620 C   0  0  0  0  0  0  0  0  0  0  0  0
    8.8390   34.7070   30.6170 F   0  0  0  0  0  0  0  0  0  0  0  0
    8.0840   40.1090   20.8580 C   0  0  0  0  0  0  0  0  0  0  0  0
    7.3840   39.2580   18.6120 C   0  0  0  0  0  0  0  0  0  0  0  0
    8.6360   39.7520   17.9070 C   0  0  0  0  0  0  0  0  0  0  0  0
    9.6820   38.6500   17.8270 C   0  0  0  0  0  0  0  0  0  0  0  0
   10.0080   38.0960   19.2070 C   0  0  0  0  0  0  0  0  0  0  0  0
    8.7540   37.6920   19.9760 C   0  0  0  0  0  0  0  0  0  0  0  0
    9.3220   40.1730   21.2370 O   0  0  0  0  0  0  0  0  0  0  0  0
    7.2810   40.9800   21.1530 O   0  0  0  0  0  0  0  0  0  0  0  0
 21  1  1  0
 25  1  2  0
 26  1  1  0
  3  2  2  0
  6  2  1  0
  4  3  1  0
  9  3  1  0
  5  4  2  0
  7  4  1  0
 23  5  1  0
 23  6  2  0
  8  7  2  0
 40  7  1  0
 24  8  1  0
 24  9  2  0
 38  9  1  0
 12 10  1  0
 27 11  1  0
 28 11  2  0
 32 11  1  0
 13 12  1  0
 14 12  1  0
 34 13  1  0
 15 14  2  0
 19 14  1  0
 16 15  1  0
 17 16  2  0
 18 17  1  0
 21 17  1  0
 19 18  2  0
 20 19  1  0
 22 21  1  0
 23 22  1  0
 27 26  1  0
 37 26  1  0
 29 28  1  0
 39 28  1  0
 30 29  2  0
 31 30  1  0
 32 31  2  0
 33 31  1  0
 35 33  1  0
 35 34  1  0
 36 35  2  0
 41 39  1  0
 42 39  1  0
 46 39  1  0
 47 41  1  0
 48 41  2  0
 43 42  1  0
 44 43  1  0
 45 44  1  0
 46 45  1  0
A    1
C13
A    2
C18
A    3
C17
A    4
C16
A    5
C15
A    6
C19
A    7
C20
A    8
C21
A    9
C23
A   10
C11
A   11
C27
A   12
C1
A   13
C2
A   14
C3
A   15
C4
A   16
C5
A   17
C6
A   18
C7
A   19
C8
A   20
C9
A   21
C10
A   22
N12
A   23
C14
A   24
N22
A   25
O24
A   26
N25
A   27
C26
A   28
C28
A   29
C29
A   30
C30
A   31
C31
A   32
C32
A   33
N33
A   34
O34
A   35
C35
A   36
O36
A   37
C37
A   38
N38
A   39
C39
A   40
F40
A   41
C41
A   42
C42
A   43
C43
A   44
C44
A   45
C45
A   46
C46
A   47
O47
A   48
O48
M  END
>  <Id>  (21) 
5L2Z_70C_H_301

>  <ChainId>  (21) 
H

>  <AsymId>  (21) 
C

>  <SeqNum>  (21) 
301

>  <Name>  (21) 
1-[(2R,15R)-2-[(1-amino-4-fluoroisoquinolin-6-yl)amino]-4,15,17-trimethyl-3,12-dioxo-13-oxa-4,11-diazatricyclo[14.2.2.1~6,10~]henicosa-1(18),6(21),7,9,16,19-hexaen-7-yl]cyclohexane-1-carboxylic acid

>  <SystematicName>  (21) 
1-[(2~{R},15~{R})-2-[(1-azanyl-4-fluoranyl-isoquinolin-6-yl)amino]-4,15,17-trimethyl-3,12-bis(oxidanylidene)-13-oxa-4,11-diazatricyclo[14.2.2.1^{6,10}]henicosa-1(19),6,8,10(21),16(20),17-hexaen-7-yl]cyclohexane-1-carboxylic acid

>  <Synonyms>  (21) 


>  <Type>  (21) 
NON-POLYMER

>  <Formula>  (21) 
C37 H40 F N5 O5

>  <ObservedFormula>  (21) 
C37 F N5 O5

>  <MolecularWeight>  (21) 
653.742

>  <ModifiedDate>  (21) 
2016-09-23

>  <Parent>  (21) 


>  <OneLetterCode>  (21) 


>  <SubcomponentList>  (21) 


>  <AmbiguousFlag>  (21) 
N

>  <InsertionCode>  (21) 


>  <InstanceId>  (21) 
5L2Z_70C_H_301

>  <ChemCompId>  (21) 
70C

>  <PdbId>  (21) 
5L2Z

>  <ResidueNumber>  (21) 
301

>  <InChI>  (21) 
InChI=1S/C37H40FN5O5/c1-21-15-23-7-10-27(21)22(2)20-48-36(47)42-25-9-12-30(37(35(45)46)13-5-4-6-14-37)24(16-25)19-43(3)34(44)32(23)41-26-8-11-28-29(17-26)31(38)18-40-33(28)39/h7-12,15-18,22,32,41H,4-6,13-14,19-20H2,1-3H3,(H2,39,40)(H,42,47)(H,45,46)/t22-,32+/m0/s1

>  <InChIKey>  (21) 
ONDHAMRPENUPCS-GHRAFVERSA-N

>  <SMILES>  (21) 
Cc1cc2ccc1[C@H](COC(=O)Nc3ccc(c(c3)CN(C(=O)[C@@H]2Nc4ccc5c(c4)c(cnc5N)F)C)C6(CCCCC6)C(=O)O)C

>  <MissingHeavyAtoms>  (21) 
0

>  <Model>  (21) 
1

>  <AltIds>  (21) 


>  <pKI>  (21) 
10.22

>  <ChemblID>  (21) 
-

>  <standardized_canonical_smiles>  (21) 
Cc1cc2ccc1[C@@H](C)COC(=O)Nc1ccc(C3(C(=O)O)CCCCC3)c(c1)CN(C)C(=O)[C@@H]2Nc1ccc2c(N)ncc(F)c2c1

$$$$
5TQG_7KS_H_301
     RDKit          3D

 48 53  0  0  0  0  0  0  0  0999 V2000
    3.6070   38.6060   21.9550 C   0  0  0  0  0  0  0  0  0  0  0  0
    8.0440   39.5060   19.4650 C   0  0  0  0  0  0  0  0  0  0  0  0
    5.7130   40.0820   20.8980 C   0  0  0  0  0  0  0  0  0  0  0  0
    9.1310   38.9080   20.3000 C   0  0  0  0  0  0  0  0  0  0  0  0
    9.4780   39.7120   19.0950 C   0  0  0  0  0  0  0  0  0  0  0  0
    6.2720   40.2320   25.6320 C   0  0  0  0  0  0  0  0  0  0  0  0
    2.7310   35.3090   24.6150 C   0  0  0  0  0  0  0  0  0  0  0  0
    4.6350   39.7210   20.0950 C   0  0  0  0  0  0  0  0  0  0  0  0
    3.5900   38.9830   20.6200 C   0  0  0  0  0  0  0  0  0  0  0  0
    8.3780   35.8050   28.0980 C   0  0  0  0  0  0  0  0  0  0  0  0
    1.6400   36.2820   24.1310 C   0  0  0  0  0  0  0  0  0  0  0  0
    8.8410   34.9870   29.1530 C   0  0  0  0  0  0  0  0  0  0  0  0
    7.2310   37.3900   25.8640 C   0  0  0  0  0  0  0  0  0  0  0  0
    5.7850   37.0620   26.2090 C   0  0  0  0  0  0  0  0  0  0  0  0
    4.9770   36.3630   25.3090 C   0  0  0  0  0  0  0  0  0  0  0  0
    3.6730   35.9680   25.6330 C   0  0  0  0  0  0  0  0  0  0  0  0
    3.2120   36.2680   26.9260 C   0  0  0  0  0  0  0  0  0  0  0  0
    4.0080   36.9790   27.8290 C   0  0  0  0  0  0  0  0  0  0  0  0
    5.2750   37.3760   27.4590 C   0  0  0  0  0  0  0  0  0  0  0  0
    6.8600   40.1510   23.2040 C   0  0  0  0  0  0  0  0  0  0  0  0
    6.8370   39.4710   24.5170 N   0  0  0  0  0  0  0  0  0  0  0  0
    5.7450   39.7410   22.2650 C   0  0  0  0  0  0  0  0  0  0  0  0
    4.6670   39.0050   22.7650 C   0  0  0  0  0  0  0  0  0  0  0  0
    2.6160   37.7320   22.4620 N   0  0  0  0  0  0  0  0  0  0  0  0
    7.0480   40.8870   20.0250 S   0  0  0  0  0  0  0  0  0  0  0  0
    6.5000   41.5300   18.8600 O   0  0  0  0  0  0  0  0  0  0  0  0
    7.8420   41.6750   20.9290 O   0  0  0  0  0  0  0  0  0  0  0  0
    2.1860   37.6390   23.7400 C   0  0  0  0  0  0  0  0  0  0  0  0
    2.2950   38.5500   24.5640 O   0  0  0  0  0  0  0  0  0  0  0  0
    8.0220   36.1770   25.7350 N   0  0  0  0  0  0  0  0  0  0  0  0
    8.5130   35.4070   26.7830 C   0  0  0  0  0  0  0  0  0  0  0  0
    9.1430   34.2030   26.4790 C   0  0  0  0  0  0  0  0  0  0  0  0
    9.5740   33.3700   27.4680 C   0  0  0  0  0  0  0  0  0  0  0  0
    9.4460   33.7260   28.8370 C   0  0  0  0  0  0  0  0  0  0  0  0
    9.9190   32.9130   29.9380 C   0  0  0  0  0  0  0  0  0  0  0  0
    9.8140   33.3160   31.2220 N   0  0  0  0  0  0  0  0  0  0  0  0
    9.2370   34.4890   31.5020 C   0  0  0  0  0  0  0  0  0  0  0  0
    8.7390   35.3590   30.5180 C   0  0  0  0  0  0  0  0  0  0  0  0
   10.4480   31.6880   29.7480 N   0  0  0  0  0  0  0  0  0  0  0  0
    7.2690   38.1890   24.5560 C   0  0  0  0  0  0  0  0  0  0  0  0
    7.7250   37.6510   23.5630 O   0  0  0  0  0  0  0  0  0  0  0  0
    1.9670   35.7840   27.2410 O   0  0  0  0  0  0  0  0  0  0  0  0
    8.1380   36.5360   30.8570 F   0  0  0  0  0  0  0  0  0  0  0  0
    1.5630   35.8440   28.6160 C   0  0  0  0  0  0  0  0  0  0  0  0
    0.2050   35.1360   28.6980 C   0  0  0  0  0  0  0  0  0  0  0  0
   -0.6790   35.7170   27.8440 F   0  0  0  0  0  0  0  0  0  0  0  0
   -0.3140   35.3950   29.9280 F   0  0  0  0  0  0  0  0  0  0  0  0
    3.4160   34.6400   23.4050 C   0  0  0  0  0  0  0  0  0  0  0  0
  9  1  1  0
 23  1  2  0
 24  1  1  0
  4  2  1  0
  5  2  1  0
 25  2  1  0
  8  3  1  0
 22  3  2  0
 25  3  1  0
  5  4  1  0
 21  6  1  0
 11  7  1  0
 16  7  1  0
 48  7  1  0
  9  8  2  0
 12 10  2  0
 31 10  1  0
 28 11  1  0
 34 12  1  0
 38 12  1  0
 14 13  1  0
 30 13  1  0
 40 13  1  0
 15 14  1  0
 19 14  2  0
 16 15  2  0
 17 16  1  0
 18 17  2  0
 42 17  1  0
 19 18  1  0
 21 20  1  0
 22 20  1  0
 40 21  1  0
 23 22  1  0
 28 24  1  0
 26 25  2  0
 27 25  2  0
 29 28  2  0
 31 30  1  0
 32 31  2  0
 33 32  1  0
 34 33  2  0
 35 34  1  0
 36 35  2  0
 39 35  1  0
 37 36  1  0
 38 37  2  0
 43 38  1  0
 41 40  2  0
 44 42  1  0
 45 44  1  0
 46 45  1  0
 47 45  1  0
A    1
C13
A    2
C18
A    3
C16
A    4
C19
A    5
C20
A    6
C23
A    7
C24
A    8
C11
A    9
C12
A   10
C34
A   11
C27
A   12
C33
A   13
C1
A   14
C2
A   15
C3
A   16
C4
A   17
C5
A   18
C6
A   19
C7
A   20
C8
A   21
N9
A   22
C10
A   23
C14
A   24
N15
A   25
S17
A   26
O21
A   27
O22
A   28
C25
A   29
O26
A   30
N28
A   31
C29
A   32
C30
A   33
C31
A   34
C32
A   35
C35
A   36
N36
A   37
C37
A   38
C38
A   39
N39
A   40
C40
A   41
O41
A   42
O42
A   43
F43
A   44
C44
A   45
C45
A   46
F46
A   47
F47
A   48
C48
M  END
>  <Id>  (22) 
5TQG_7KS_H_301

>  <ChainId>  (22) 
H

>  <AsymId>  (22) 
C

>  <SeqNum>  (22) 
301

>  <Name>  (22) 
(5R,11R)-11-[(1-amino-4-fluoroisoquinolin-6-yl)amino]-16-(cyclopropylsulfonyl)-7-(2,2-difluoroethoxy)-5,13-dimethyl-2,13-diazatricyclo[13.3.1.1~6,10~]icosa-1(19),6(20),7,9,15,17-hexaene-3,12-dione

>  <SystematicName>  (22) 
(5~{R},11~{R})-11-[(1-azanyl-4-fluoranyl-isoquinolin-6-yl)amino]-7-[2,2-bis(fluoranyl)ethoxy]-16-cyclopropylsulfonyl-5,13-dimethyl-2,13-diazatricyclo[13.3.1.1^{6,10}]icosa-1(19),6(20),7,9,15,17-hexaene-3,12-dione

>  <Synonyms>  (22) 


>  <Type>  (22) 
NON-POLYMER

>  <Formula>  (22) 
C34 H34 F3 N5 O5 S

>  <ObservedFormula>  (22) 
C34 S F3 N5 O5

>  <MolecularWeight>  (22) 
681.724

>  <ModifiedDate>  (22) 
2017-01-26

>  <Parent>  (22) 


>  <OneLetterCode>  (22) 


>  <SubcomponentList>  (22) 


>  <AmbiguousFlag>  (22) 
N

>  <InsertionCode>  (22) 


>  <InstanceId>  (22) 
5TQG_7KS_H_301

>  <ChemCompId>  (22) 
7KS

>  <PdbId>  (22) 
5TQG

>  <ResidueNumber>  (22) 
301

>  <InChI>  (22) 
InChI=1S/C34H34F3N5O5S/c1-18-11-31(43)40-21-5-10-29(48(45,46)23-6-7-23)20(12-21)16-42(2)34(44)32(19-3-9-28(25(18)13-19)47-17-30(36)37)41-22-4-8-24-26(14-22)27(35)15-39-33(24)38/h3-5,8-10,12-15,18,23,30,32,41H,6-7,11,16-17H2,1-2H3,(H2,38,39)(H,40,43)/t18-,32-/m1/s1

>  <InChIKey>  (22) 
UWAQLEGUXYPPDC-ZUQCGGBESA-N

>  <SMILES>  (22) 
C[C@@H]1CC(=O)Nc2ccc(c(c2)CN(C(=O)[C@@H](c3ccc(c1c3)OCC(F)F)Nc4ccc5c(c4)c(cnc5N)F)C)S(=O)(=O)C6CC6

>  <MissingHeavyAtoms>  (22) 
0

>  <Model>  (22) 
1

>  <AltIds>  (22) 


>  <pKI>  (22) 
9.62

>  <ChemblID>  (22) 
-

>  <standardized_canonical_smiles>  (22) 
C[C@@H]1CC(=O)Nc2ccc(S(=O)(=O)C3CC3)c(c2)CN(C)C(=O)[C@H](Nc2ccc3c(N)ncc(F)c3c2)c2ccc(OCC(F)F)c1c2

$$$$
5U6J_82J_H_301
     RDKit          3D

 42 45  0  0  0  0  0  0  0  0999 V2000
    3.6010   35.7100   24.3470 C   0  0  0  0  0  0  0  0  0  0  0  0
    5.6920   39.8320   22.1980 C   0  0  0  0  0  0  0  0  0  0  0  0
    6.7200   40.2320   23.2340 C   0  0  0  0  0  0  0  0  0  0  0  0
    5.8320   40.0610   20.8150 C   0  0  0  0  0  0  0  0  0  0  0  0
    4.8370   39.6660   19.9260 C   0  0  0  0  0  0  0  0  0  0  0  0
    3.6890   39.0400   20.3870 C   0  0  0  0  0  0  0  0  0  0  0  0
    3.5180   38.8070   21.7450 C   0  0  0  0  0  0  0  0  0  0  0  0
    4.5220   39.1950   22.6280 C   0  0  0  0  0  0  0  0  0  0  0  0
    3.2550   36.6410   26.5480 C   0  0  0  0  0  0  0  0  0  0  0  0
    2.7290   36.0250   25.4120 C   0  0  0  0  0  0  0  0  0  0  0  0
    3.3060   33.5490   23.2020 C   0  0  0  0  0  0  0  0  0  0  0  0
    9.5470   33.7590   28.4530 C   0  0  0  0  0  0  0  0  0  0  0  0
    8.7820   34.8650   28.8130 C   0  0  0  0  0  0  0  0  0  0  0  0
    8.2040   35.6460   27.8140 C   0  0  0  0  0  0  0  0  0  0  0  0
    8.3930   35.3250   26.4650 C   0  0  0  0  0  0  0  0  0  0  0  0
    9.1630   34.2160   26.1240 C   0  0  0  0  0  0  0  0  0  0  0  0
    9.7320   33.4410   27.1180 C   0  0  0  0  0  0  0  0  0  0  0  0
    7.8590   36.1010   25.4320 N   0  0  0  0  0  0  0  0  0  0  0  0
    6.8990   37.1850   25.5750 C   0  0  0  0  0  0  0  0  0  0  0  0
    7.0860   38.1490   24.3900 C   0  0  0  0  0  0  0  0  0  0  0  0
    4.5980   36.9610   26.6290 C   0  0  0  0  0  0  0  0  0  0  0  0
    4.9520   36.0430   24.4560 C   0  0  0  0  0  0  0  0  0  0  0  0
    7.5840   37.7240   23.3660 O   0  0  0  0  0  0  0  0  0  0  0  0
    6.6530   39.4280   24.4690 N   0  0  0  0  0  0  0  0  0  0  0  0
    2.3310   38.1710   22.2060 N   0  0  0  0  0  0  0  0  0  0  0  0
    1.2270   35.7690   25.3610 C   0  0  0  0  0  0  0  0  0  0  0  0
    1.7870   38.2400   23.4530 C   0  0  0  0  0  0  0  0  0  0  0  0
    0.7810   37.3450   23.5570 O   0  0  0  0  0  0  0  0  0  0  0  0
    2.1780   38.9280   24.3670 O   0  0  0  0  0  0  0  0  0  0  0  0
    0.3990   36.9720   24.9110 C   0  0  0  0  0  0  0  0  0  0  0  0
    3.1610   35.0050   23.0900 C   0  0  0  0  0  0  0  0  0  0  0  0
    8.5400   35.2580   30.2510 C   0  0  0  0  0  0  0  0  0  0  0  0
    9.1390   34.5370   31.2250 N   0  0  0  0  0  0  0  0  0  0  0  0
    7.7770   36.2080   30.5000 O   0  0  0  0  0  0  0  0  0  0  0  0
    6.1440   40.1020   25.6640 C   0  0  0  0  0  0  0  0  0  0  0  0
    7.2470   40.8660   20.0580 S   0  0  0  0  0  0  0  0  0  0  0  0
    7.9620   41.6130   21.0580 O   0  0  0  0  0  0  0  0  0  0  0  0
    8.3480   39.4950   19.4770 C   0  0  0  0  0  0  0  0  0  0  0  0
    9.0470   38.7250   20.5840 C   0  0  0  0  0  0  0  0  0  0  0  0
    9.3220   40.0450   18.4530 C   0  0  0  0  0  0  0  0  0  0  0  0
    6.7760   41.5650   18.8930 O   0  0  0  0  0  0  0  0  0  0  0  0
    5.4590   36.6870   25.5780 C   0  0  0  0  0  0  0  0  0  0  0  0
 10  1  2  0
 22  1  1  0
 31  1  1  0
  3  2  1  0
  4  2  1  0
  8  2  2  0
 24  3  1  0
  5  4  2  0
 36  4  1  0
  6  5  1  0
  7  6  2  0
  8  7  1  0
 25  7  1  0
 10  9  1  0
 21  9  2  0
 26 10  1  0
 31 11  1  0
 13 12  2  0
 17 12  1  0
 14 13  1  0
 32 13  1  0
 15 14  2  0
 16 15  1  0
 18 15  1  0
 17 16  2  0
 19 18  1  0
 20 19  1  0
 42 19  1  0
 23 20  2  0
 24 20  1  0
 42 21  1  0
 42 22  2  0
 35 24  1  0
 27 25  1  0
 30 26  1  0
 28 27  1  0
 29 27  2  0
 30 28  1  0
 33 32  1  0
 34 32  2  0
 37 36  2  0
 38 36  1  0
 41 36  2  0
 39 38  1  0
 40 38  1  0
A    1
C13
A    2
C18
A    3
C17
A    4
C19
A    5
C20
A    6
C21
A    7
C22
A    8
C23
A    9
C11
A   10
C12
A   11
C34
A   12
C1
A   13
C2
A   14
C3
A   15
C4
A   16
C5
A   17
C6
A   18
N7
A   19
C8
A   20
C9
A   21
C10
A   22
C14
A   23
O15
A   24
N16
A   25
N24
A   26
C25
A   27
C26
A   28
O27
A   29
O28
A   30
C29
A   31
C30
A   32
C31
A   33
N32
A   34
O33
A   35
C35
A   36
S36
A   37
O37
A   38
C38
A   39
C39
A   40
C40
A   41
O41
A   42
C42
M  END
>  <Id>  (23) 
5U6J_82J_H_301

>  <ChainId>  (23) 
H

>  <AsymId>  (23) 
C

>  <SeqNum>  (23) 
301

>  <Name>  (23) 
3-{[(2R)-17-ethyl-4-methyl-3,12-dioxo-7-[(propan-2-yl)sulfonyl]-13-oxa-4,11-diazatricyclo[14.2.2.1~6,10~]henicosa-1(18),6(21),7,9,16,19-hexaen-2-yl]amino}benzamide

>  <SystematicName>  (23) 
3-[[(2~{R})-17-ethyl-4-methyl-3,12-bis(oxidanylidene)-7-propan-2-ylsulfonyl-13-oxa-4,11-diazatricyclo[14.2.2.1^{6,10}]henicosa-1(19),6,8,10(21),16(20),17-hexaen-2-yl]amino]benzamide

>  <Synonyms>  (23) 


>  <Type>  (23) 
NON-POLYMER

>  <Formula>  (23) 
C31 H36 N4 O6 S

>  <ObservedFormula>  (23) 
C31 S N4 O6

>  <MolecularWeight>  (23) 
592.706

>  <ModifiedDate>  (23) 
2017-05-05

>  <Parent>  (23) 


>  <OneLetterCode>  (23) 


>  <SubcomponentList>  (23) 


>  <AmbiguousFlag>  (23) 
N

>  <InsertionCode>  (23) 


>  <InstanceId>  (23) 
5U6J_82J_H_301

>  <ChemCompId>  (23) 
82J

>  <PdbId>  (23) 
5U6J

>  <ResidueNumber>  (23) 
301

>  <InChI>  (23) 
InChI=1S/C31H36N4O6S/c1-5-20-15-22-10-9-21(20)13-14-41-31(38)34-26-11-12-27(42(39,40)19(2)3)24(17-26)18-35(4)30(37)28(22)33-25-8-6-7-23(16-25)29(32)36/h6-12,15-17,19,28,33H,5,13-14,18H2,1-4H3,(H2,32,36)(H,34,38)/t28-/m1/s1

>  <InChIKey>  (23) 
KZSYSYPLRUUKEU-MUUNZHRXSA-N

>  <SMILES>  (23) 
CCc1cc2ccc1CCOC(=O)Nc3ccc(c(c3)CN(C(=O)[C@@H]2Nc4cccc(c4)C(=O)N)C)S(=O)(=O)C(C)C

>  <MissingHeavyAtoms>  (23) 
0

>  <Model>  (23) 
1

>  <AltIds>  (23) 


>  <pKI>  (23) 
7.64

>  <ChemblID>  (23) 
-

>  <standardized_canonical_smiles>  (23) 
CCc1cc2ccc1CCOC(=O)Nc1ccc(S(=O)(=O)C(C)C)c(c1)CN(C)C(=O)[C@@H]2Nc1cccc(C(N)=O)c1

$$$$
4ISI_1GG_H_301
     RDKit          3D

 33 36  0  0  0  0  0  0  0  0999 V2000
    9.6070   34.4960   28.7990 C   0  0  0  0  0  0  0  0  0  0  0  0
    8.8560   35.6890   28.9060 C   0  0  0  0  0  0  0  0  0  0  0  0
    8.6010   36.4810   27.7750 C   0  0  0  0  0  0  0  0  0  0  0  0
    9.0760   36.0710   26.5200 C   0  0  0  0  0  0  0  0  0  0  0  0
    0.0240   37.3310   24.7960 Cl  0  0  0  0  0  0  0  0  0  0  0  0
    9.8520   34.8940   26.4100 C   0  0  0  0  0  0  0  0  0  0  0  0
   10.1100   34.1090   27.5420 C   0  0  0  0  0  0  0  0  0  0  0  0
    9.9050   33.6890   29.9950 C   0  0  0  0  0  0  0  0  0  0  0  0
   10.3660   32.4320   29.9110 N   0  0  0  0  0  0  0  0  0  0  0  0
    9.7210   34.2630   31.2050 N   0  0  0  0  0  0  0  0  0  0  0  0
    8.7020   36.8290   25.2920 C   0  0  0  0  0  0  0  0  0  0  0  0
    7.3590   36.4550   24.8930 N   0  0  0  0  0  0  0  0  0  0  0  0
    6.3490   37.3370   25.0000 C   0  0  0  0  0  0  0  0  0  0  0  0
    6.4150   38.4810   25.4410 O   0  0  0  0  0  0  0  0  0  0  0  0
    5.0390   36.7960   24.5150 C   0  0  0  0  0  0  0  0  0  0  0  0
    4.4360   37.1520   23.1390 C   0  0  0  0  0  0  0  0  0  0  0  0
    2.8910   37.1380   23.2870 C   0  0  0  0  0  0  0  0  0  0  0  0
    2.6950   37.0070   24.7920 C   0  0  0  0  0  0  0  0  0  0  0  0
    3.8850   36.8120   25.4050 N   0  0  0  0  0  0  0  0  0  0  0  0
    2.3130   35.9380   22.5070 C   0  0  0  0  0  0  0  0  0  0  0  0
    2.2610   38.4250   22.6850 C   0  0  0  0  0  0  0  0  0  0  0  0
    2.8990   34.5620   22.8660 C   0  0  0  0  0  0  0  0  0  0  0  0
    2.6220   39.7360   23.3950 C   0  0  0  0  0  0  0  0  0  0  0  0
    1.5430   37.0610   25.5790 C   0  0  0  0  0  0  0  0  0  0  0  0
    1.5470   36.9250   26.9060 N   0  0  0  0  0  0  0  0  0  0  0  0
    2.7160   36.7250   27.5400 C   0  0  0  0  0  0  0  0  0  0  0  0
    3.9880   36.6570   26.7910 C   0  0  0  0  0  0  0  0  0  0  0  0
    5.0800   36.4750   27.3130 O   0  0  0  0  0  0  0  0  0  0  0  0
    2.8100   36.5060   28.8790 N   0  0  0  0  0  0  0  0  0  0  0  0
    1.7690   36.7310   29.8290 C   0  0  0  0  0  0  0  0  0  0  0  0
    1.4210   35.9510   31.1180 C   0  0  0  0  0  0  0  0  0  0  0  0
    1.5590   37.3140   31.8550 C   0  0  0  0  0  0  0  0  0  0  0  0
    1.3200   38.0510   30.5020 C   0  0  0  0  0  0  0  0  0  0  0  0
  2  1  2  0
  7  1  1  0
  8  1  1  0
  3  2  1  0
  4  3  2  0
  6  4  1  0
 11  4  1  0
 24  5  1  0
  7  6  2  0
  9  8  2  0
 10  8  1  0
 12 11  1  0
 13 12  1  0
 14 13  2  0
 15 13  1  0
 16 15  1  0
 19 15  1  0
 17 16  1  0
 18 17  1  0
 20 17  1  0
 21 17  1  0
 19 18  1  0
 24 18  2  0
 27 19  1  0
 22 20  1  0
 23 21  1  0
 25 24  1  0
 26 25  2  0
 27 26  1  0
 29 26  1  0
 28 27  2  0
 30 29  1  0
 31 30  1  0
 33 30  1  0
 32 31  1  0
 33 32  1  0
A    1
C1
A    2
C2
A    3
C3
A    4
C4
A    5
CL4
A    6
C5
A    7
C6
A    8
C11
A    9
N12
A   10
N13
A   11
C14
A   12
N15
A   13
C18
A   14
O19
A   15
C20
A   16
C21
A   17
C22
A   18
C23
A   19
N24
A   20
C28
A   21
C29
A   22
C30
A   23
C36
A   24
C42
A   25
N43
A   26
C44
A   27
C45
A   28
O46
A   29
N48
A   30
C49
A   31
C50
A   32
C51
A   33
C52
M  END
>  <Id>  (24) 
4ISI_1GG_H_301

>  <ChainId>  (24) 
H

>  <AsymId>  (24) 
C

>  <SeqNum>  (24) 
301

>  <Name>  (24) 
(6S)-N-(4-carbamimidoylbenzyl)-1-chloro-3-(cyclobutylamino)-8,8-diethyl-4-oxo-4,6,7,8-tetrahydropyrrolo[1,2-a]pyrazine-6-carboxamide

>  <SystematicName>  (24) 
N-[(4-carbamimidoylphenyl)methyl]-1-chloranyl-3-(cyclobutylamino)-8,8-diethyl-4-oxidanylidene-6,7-dihydropyrrolo[1,2-a]pyrazine-6-carboxamide

>  <Synonyms>  (24) 


>  <Type>  (24) 
NON-POLYMER

>  <Formula>  (24) 
C24 H31 Cl N6 O2

>  <ObservedFormula>  (24) 
C24 Cl N6 O2

>  <MolecularWeight>  (24) 
470.995

>  <ModifiedDate>  (24) 
2013-02-22

>  <Parent>  (24) 


>  <OneLetterCode>  (24) 


>  <SubcomponentList>  (24) 


>  <AmbiguousFlag>  (24) 
N

>  <InsertionCode>  (24) 


>  <InstanceId>  (24) 
4ISI_1GG_H_301

>  <ChemCompId>  (24) 
1GG

>  <PdbId>  (24) 
4ISI

>  <ResidueNumber>  (24) 
301

>  <InChI>  (24) 
InChI=1S/C24H31ClN6O2/c1-3-24(4-2)12-17(22(32)28-13-14-8-10-15(11-9-14)20(26)27)31-18(24)19(25)30-21(23(31)33)29-16-6-5-7-16/h8-11,16-17H,3-7,12-13H2,1-2H3,(H3,26,27)(H,28,32)(H,29,30)/t17-/m0/s1

>  <InChIKey>  (24) 
PSBXYQNRXKCBMB-KRWDZBQOSA-N

>  <SMILES>  (24) 
[H]/N=C(/c1ccc(cc1)CNC(=O)C2CC(C3=C(N=C(C(=O)N23)NC4CCC4)Cl)(CC)CC)\N

>  <MissingHeavyAtoms>  (24) 
0

>  <Model>  (24) 
1

>  <AltIds>  (24) 


>  <pKI>  (24) 
8.14

>  <ChemblID>  (24) 
-

>  <standardized_canonical_smiles>  (24) 
CCC1(CC)C[C@@H](C(=O)NCc2ccc(C(=N)N)cc2)n2c1c(Cl)nc(NC1CCC1)c2=O

$$$$
4JYV_1OJ_H_301
     RDKit          3D

 41 44  0  0  0  0  0  0  0  0999 V2000
    7.1830   38.2750   24.3170 C   0  0  0  0  0  0  0  0  0  0  0  0
    3.8120   36.2650   25.1010 C   0  0  0  0  0  0  0  0  0  0  0  0
    5.1740   36.4310   24.9260 C   0  0  0  0  0  0  0  0  0  0  0  0
    5.9210   37.1750   25.8340 C   0  0  0  0  0  0  0  0  0  0  0  0
    3.1660   36.8800   26.2050 C   0  0  0  0  0  0  0  0  0  0  0  0
    3.9260   37.5880   27.1350 C   0  0  0  0  0  0  0  0  0  0  0  0
    5.2900   37.7300   26.9400 C   0  0  0  0  0  0  0  0  0  0  0  0
    3.6750   35.0850   23.0230 C   0  0  0  0  0  0  0  0  0  0  0  0
    7.3860   37.4600   25.5340 C   0  0  0  0  0  0  0  0  0  0  0  0
    4.2970   38.9290   20.6590 C   0  0  0  0  0  0  0  0  0  0  0  0
    1.3760   36.2050   28.6360 C   0  0  0  0  0  0  0  0  0  0  0  0
    5.3590   39.5850   21.2700 C   0  0  0  0  0  0  0  0  0  0  0  0
   10.3450   32.3460   29.5310 C   0  0  0  0  0  0  0  0  0  0  0  0
    9.9820   33.0200   30.6280 N   0  0  0  0  0  0  0  0  0  0  0  0
    9.3950   34.1930   30.4580 C   0  0  0  0  0  0  0  0  0  0  0  0
    9.1230   34.7600   29.1950 C   0  0  0  0  0  0  0  0  0  0  0  0
    9.5420   34.0350   28.0550 C   0  0  0  0  0  0  0  0  0  0  0  0
   10.1700   32.7990   28.2590 C   0  0  0  0  0  0  0  0  0  0  0  0
    8.4300   35.9670   29.0170 C   0  0  0  0  0  0  0  0  0  0  0  0
    8.1610   36.4380   27.7740 C   0  0  0  0  0  0  0  0  0  0  0  0
    8.5650   35.7390   26.6360 C   0  0  0  0  0  0  0  0  0  0  0  0
    9.2630   34.5580   26.7690 C   0  0  0  0  0  0  0  0  0  0  0  0
    8.1900   36.2540   25.4010 N   0  0  0  0  0  0  0  0  0  0  0  0
    7.1660   37.7890   23.1930 O   0  0  0  0  0  0  0  0  0  0  0  0
    6.9500   39.5950   24.5930 N   0  0  0  0  0  0  0  0  0  0  0  0
    1.7850   36.8870   26.2050 O   0  0  0  0  0  0  0  0  0  0  0  0
    3.0860   35.4270   24.2880 O   0  0  0  0  0  0  0  0  0  0  0  0
    2.8460   34.2130   22.3970 C   0  0  0  0  0  0  0  0  0  0  0  0
    0.9830   36.1400   27.1830 C   0  0  0  0  0  0  0  0  0  0  0  0
   -0.4230   36.5950   26.9460 C   0  0  0  0  0  0  0  0  0  0  0  0
    6.6090   40.6990   23.4400 S   0  0  0  0  0  0  0  0  0  0  0  0
    6.1860   41.9160   24.0630 O   0  0  0  0  0  0  0  0  0  0  0  0
    7.7490   40.7030   22.5760 O   0  0  0  0  0  0  0  0  0  0  0  0
    5.2300   39.9950   22.5890 C   0  0  0  0  0  0  0  0  0  0  0  0
    3.1130   38.6890   21.3440 C   0  0  0  0  0  0  0  0  0  0  0  0
    2.9910   39.1240   22.6570 C   0  0  0  0  0  0  0  0  0  0  0  0
    4.0480   39.7710   23.2840 C   0  0  0  0  0  0  0  0  0  0  0  0
    1.4500   38.9120   23.5060 S   0  0  0  0  0  0  0  0  0  0  0  0
    1.5910   39.4760   24.8170 O   0  0  0  0  0  0  0  0  0  0  0  0
    1.0700   37.5340   23.3880 O   0  0  0  0  0  0  0  0  0  0  0  0
    0.3340   39.7720   22.7420 N   0  0  0  0  0  0  0  0  0  0  0  0
  9  1  1  0
 24  1  2  0
 25  1  1  0
  3  2  2  0
  5  2  1  0
 27  2  1  0
  4  3  1  0
  7  4  2  0
  9  4  1  0
  6  5  2  0
 26  5  1  0
  7  6  1  0
 27  8  1  0
 28  8  1  0
 23  9  1  0
 12 10  2  0
 35 10  1  0
 29 11  1  0
 34 12  1  0
 14 13  2  0
 18 13  1  0
 15 14  1  0
 16 15  2  0
 17 16  1  0
 19 16  1  0
 18 17  2  0
 22 17  1  0
 20 19  2  0
 21 20  1  0
 22 21  2  0
 23 21  1  0
 31 25  1  0
 29 26  1  0
 30 29  1  0
 32 31  2  0
 33 31  2  0
 34 31  1  0
 37 34  2  0
 36 35  2  0
 37 36  1  0
 38 36  1  0
 39 38  2  0
 40 38  2  0
 41 38  1  0
A    1
C13
A    2
C18
A    3
C17
A    4
C16
A    5
C19
A    6
C20
A    7
C21
A    8
C24
A    9
C12
A   10
C34
A   11
C27
A   12
C33
A   13
C1
A   14
N2
A   15
C3
A   16
C4
A   17
C5
A   18
C6
A   19
C7
A   20
C8
A   21
C9
A   22
C10
A   23
N11
A   24
O14
A   25
N15
A   26
O22
A   27
O23
A   28
C25
A   29
C26
A   30
C28
A   31
S29
A   32
O30
A   33
O31
A   34
C32
A   35
C35
A   36
C36
A   37
C37
A   38
S38
A   39
O39
A   40
O40
A   41
N41
M  END
>  <Id>  (25) 
4JYV_1OJ_H_301

>  <ChainId>  (25) 
H

>  <AsymId>  (25) 
C

>  <SeqNum>  (25) 
301

>  <Name>  (25) 
(2R)-2-[3-ethoxy-4-(propan-2-yloxy)phenyl]-2-(isoquinolin-6-ylamino)-N-[(3-sulfamoylphenyl)sulfonyl]ethanamide

>  <SystematicName>  (25) 
(2R)-2-(3-ethoxy-4-propan-2-yloxy-phenyl)-2-(isoquinolin-6-ylamino)-N-(3-sulfamoylphenyl)sulfonyl-ethanamide

>  <Synonyms>  (25) 


>  <Type>  (25) 
NON-POLYMER

>  <Formula>  (25) 
C28 H30 N4 O7 S2

>  <ObservedFormula>  (25) 
C28 S2 N4 O7

>  <MolecularWeight>  (25) 
598.69

>  <ModifiedDate>  (25) 
2013-07-19

>  <Parent>  (25) 


>  <OneLetterCode>  (25) 


>  <SubcomponentList>  (25) 


>  <AmbiguousFlag>  (25) 
N

>  <InsertionCode>  (25) 


>  <InstanceId>  (25) 
4JYV_1OJ_H_301

>  <ChemCompId>  (25) 
1OJ

>  <PdbId>  (25) 
4JYV

>  <ResidueNumber>  (25) 
301

>  <InChI>  (25) 
InChI=1S/C28H30N4O7S2/c1-4-38-26-15-20(9-11-25(26)39-18(2)3)27(31-22-10-8-21-17-30-13-12-19(21)14-22)28(33)32-41(36,37)24-7-5-6-23(16-24)40(29,34)35/h5-18,27,31H,4H2,1-3H3,(H,32,33)(H2,29,34,35)/t27-/m1/s1

>  <InChIKey>  (25) 
QHVDUHFNSHQJRC-HHHXNRCGSA-N

>  <SMILES>  (25) 
CCOc1cc(ccc1OC(C)C)[C@H](C(=O)NS(=O)(=O)c2cccc(c2)S(=O)(=O)N)Nc3ccc4cnccc4c3

>  <MissingHeavyAtoms>  (25) 
0

>  <Model>  (25) 
1

>  <AltIds>  (25) 


>  <pKI>  (25) 
7.72

>  <ChemblID>  (25) 
-

>  <standardized_canonical_smiles>  (25) 
CCOc1cc([C@@H](Nc2ccc3cnccc3c2)C(=O)NS(=O)(=O)c2cccc(S(N)(=O)=O)c2)ccc1OC(C)C

$$$$
4JYU_1OK_H_301
     RDKit          3D

 38 41  0  0  0  0  0  0  0  0999 V2000
    9.4140   33.7690   28.6870 C   0  0  0  0  0  0  0  0  0  0  0  0
    9.5970   33.3860   27.3270 C   0  0  0  0  0  0  0  0  0  0  0  0
    9.2020   34.1950   26.3030 C   0  0  0  0  0  0  0  0  0  0  0  0
    8.5830   35.4190   26.5570 C   0  0  0  0  0  0  0  0  0  0  0  0
    8.3870   35.8370   27.8580 C   0  0  0  0  0  0  0  0  0  0  0  0
    7.3350   37.3890   25.7060 C   0  0  0  0  0  0  0  0  0  0  0  0
    5.8600   37.0720   25.9150 C   0  0  0  0  0  0  0  0  0  0  0  0
    7.3550   38.2210   24.4690 C   0  0  0  0  0  0  0  0  0  0  0  0
    5.1750   36.3120   24.9660 C   0  0  0  0  0  0  0  0  0  0  0  0
    8.6550   35.4570   30.2890 C   0  0  0  0  0  0  0  0  0  0  0  0
    8.7990   35.0320   28.9480 C   0  0  0  0  0  0  0  0  0  0  0  0
   -0.4390   36.4350   27.0370 C   0  0  0  0  0  0  0  0  0  0  0  0
    3.8140   37.3490   27.1740 C   0  0  0  0  0  0  0  0  0  0  0  0
    0.9740   36.5580   27.4940 C   0  0  0  0  0  0  0  0  0  0  0  0
    6.9920   39.5190   24.6590 N   0  0  0  0  0  0  0  0  0  0  0  0
    6.7880   40.5710   23.4320 S   0  0  0  0  0  0  0  0  0  0  0  0
    5.4640   39.8680   22.4970 C   0  0  0  0  0  0  0  0  0  0  0  0
    4.4300   39.2160   23.1610 C   0  0  0  0  0  0  0  0  0  0  0  0
    3.4110   38.6340   22.4210 C   0  0  0  0  0  0  0  0  0  0  0  0
    3.4130   38.7160   21.0400 C   0  0  0  0  0  0  0  0  0  0  0  0
    4.4330   39.3830   20.3910 C   0  0  0  0  0  0  0  0  0  0  0  0
    5.4710   39.9610   21.1120 C   0  0  0  0  0  0  0  0  0  0  0  0
    9.6950   33.4620   31.0860 N   0  0  0  0  0  0  0  0  0  0  0  0
    9.1200   34.6580   31.2890 C   0  0  0  0  0  0  0  0  0  0  0  0
    9.8430   33.0020   29.8400 C   0  0  0  0  0  0  0  0  0  0  0  0
   10.4320   31.7970   29.6820 N   0  0  0  0  0  0  0  0  0  0  0  0
    8.1420   36.1990   25.4890 N   0  0  0  0  0  0  0  0  0  0  0  0
    3.8220   36.0530   25.1180 C   0  0  0  0  0  0  0  0  0  0  0  0
    3.1260   36.5830   26.2340 C   0  0  0  0  0  0  0  0  0  0  0  0
    5.1700   37.5760   27.0110 C   0  0  0  0  0  0  0  0  0  0  0  0
    1.7840   36.2660   26.3060 O   0  0  0  0  0  0  0  0  0  0  0  0
    3.0950   35.2120   24.3060 O   0  0  0  0  0  0  0  0  0  0  0  0
    3.7410   34.5900   23.1770 C   0  0  0  0  0  0  0  0  0  0  0  0
    2.7630   33.7310   22.5170 C   0  0  0  0  0  0  0  0  0  0  0  0
    1.2940   35.6270   28.6210 C   0  0  0  0  0  0  0  0  0  0  0  0
    7.6950   37.7830   23.3730 O   0  0  0  0  0  0  0  0  0  0  0  0
    6.3120   41.7820   24.0350 O   0  0  0  0  0  0  0  0  0  0  0  0
    7.9670   40.5990   22.6190 O   0  0  0  0  0  0  0  0  0  0  0  0
  2  1  2  0
 11  1  1  0
 25  1  1  0
  3  2  1  0
  4  3  2  0
  5  4  1  0
 27  4  1  0
 11  5  2  0
  7  6  1  0
  8  6  1  0
 27  6  1  0
  9  7  2  0
 30  7  1  0
 15  8  1  0
 36  8  2  0
 28  9  1  0
 11 10  1  0
 24 10  2  0
 14 12  1  0
 29 13  1  0
 30 13  2  0
 31 14  1  0
 35 14  1  0
 16 15  1  0
 17 16  1  0
 37 16  2  0
 38 16  2  0
 18 17  2  0
 22 17  1  0
 19 18  1  0
 20 19  2  0
 21 20  1  0
 22 21  2  0
 24 23  1  0
 25 23  2  0
 26 25  1  0
 29 28  2  0
 32 28  1  0
 31 29  1  0
 33 32  1  0
 34 33  1  0
A    1
C13
A    2
C18
A    3
C17
A    4
C16
A    5
C15
A    6
C21
A    7
C22
A    8
C23
A    9
C24
A   10
C11
A   11
C12
A   12
C34
A   13
C27
A   14
C33
A   15
N1
A   16
S2
A   17
C3
A   18
C4
A   19
C5
A   20
C6
A   21
C7
A   22
C8
A   23
N9
A   24
C10
A   25
C14
A   26
N19
A   27
N20
A   28
C25
A   29
C26
A   30
C28
A   31
O29
A   32
O30
A   33
C31
A   34
C32
A   35
C35
A   36
O36
A   37
O37
A   38
O38
M  END
>  <Id>  (26) 
4JYU_1OK_H_301

>  <ChainId>  (26) 
H

>  <AsymId>  (26) 
C

>  <SeqNum>  (26) 
301

>  <Name>  (26) 
(2R)-2-[(1-aminoisoquinolin-6-yl)amino]-2-[3-ethoxy-4-(propan-2-yloxy)phenyl]-N-(phenylsulfonyl)ethanamide

>  <SystematicName>  (26) 
(2R)-2-[(1-azanylisoquinolin-6-yl)amino]-2-(3-ethoxy-4-propan-2-yloxy-phenyl)-N-(phenylsulfonyl)ethanamide

>  <Synonyms>  (26) 


>  <Type>  (26) 
NON-POLYMER

>  <Formula>  (26) 
C28 H30 N4 O5 S

>  <ObservedFormula>  (26) 
C28 S N4 O5

>  <MolecularWeight>  (26) 
534.627

>  <ModifiedDate>  (26) 
2013-07-19

>  <Parent>  (26) 


>  <OneLetterCode>  (26) 


>  <SubcomponentList>  (26) 


>  <AmbiguousFlag>  (26) 
N

>  <InsertionCode>  (26) 


>  <InstanceId>  (26) 
4JYU_1OK_H_301

>  <ChemCompId>  (26) 
1OK

>  <PdbId>  (26) 
4JYU

>  <ResidueNumber>  (26) 
301

>  <InChI>  (26) 
InChI=1S/C28H30N4O5S/c1-4-36-25-17-20(10-13-24(25)37-18(2)3)26(28(33)32-38(34,35)22-8-6-5-7-9-22)31-21-11-12-23-19(16-21)14-15-30-27(23)29/h5-18,26,31H,4H2,1-3H3,(H2,29,30)(H,32,33)/t26-/m1/s1

>  <InChIKey>  (26) 
ICZUITMFGXCICW-AREMUKBSSA-N

>  <SMILES>  (26) 
CCOc1cc(ccc1OC(C)C)[C@H](C(=O)NS(=O)(=O)c2ccccc2)Nc3ccc4c(c3)ccnc4N

>  <MissingHeavyAtoms>  (26) 
0

>  <Model>  (26) 
1

>  <AltIds>  (26) 


>  <pKI>  (26) 
7.97

>  <ChemblID>  (26) 
-

>  <standardized_canonical_smiles>  (26) 
CCOc1cc([C@@H](Nc2ccc3c(N)nccc3c2)C(=O)NS(=O)(=O)c2ccccc2)ccc1OC(C)C

$$$$
2BZ6_346_H_1258
     RDKit          3D

 30 32  0  0  0  0  0  0  0  0999 V2000
    9.1080   41.7380   30.0750 F   0  0  0  0  0  0  0  0  0  0  0  0
    9.9720   42.3270   30.9280 C   0  0  0  0  0  0  0  0  0  0  0  0
   10.3470   43.6140   30.6520 C   0  0  0  0  0  0  0  0  0  0  0  0
    9.7850   44.1710   29.5170 O   0  0  0  0  0  0  0  0  0  0  0  0
   10.2010   45.4940   29.1980 C   0  0  0  0  0  0  0  0  0  0  0  0
    9.3320   45.9850   28.0480 C   0  0  0  0  0  0  0  0  0  0  0  0
   10.1360   45.5400   26.8400 C   0  0  0  0  0  0  0  0  0  0  0  0
   11.5180   45.5570   27.2220 O   0  0  0  0  0  0  0  0  0  0  0  0
   11.6330   45.4950   28.6530 C   0  0  0  0  0  0  0  0  0  0  0  0
   11.2410   44.2760   31.4940 C   0  0  0  0  0  0  0  0  0  0  0  0
   11.7300   43.6010   32.6210 C   0  0  0  0  0  0  0  0  0  0  0  0
   12.6290   44.3560   33.3710 O   0  0  0  0  0  0  0  0  0  0  0  0
   13.1870   43.6600   34.4920 C   0  0  0  0  0  0  0  0  0  0  0  0
   14.1920   44.5270   35.2280 C   0  0  0  0  0  0  0  0  0  0  0  0
   11.3480   42.2770   32.8800 C   0  0  0  0  0  0  0  0  0  0  0  0
   10.4570   41.6220   32.0350 C   0  0  0  0  0  0  0  0  0  0  0  0
   10.0230   40.2110   32.3020 C   0  0  0  0  0  0  0  0  0  0  0  0
    9.2560   40.1290   33.5870 C   0  0  0  0  0  0  0  0  0  0  0  0
    8.1130   40.6840   33.5850 O   0  0  0  0  0  0  0  0  0  0  0  0
    9.7280   39.5130   34.6070 O   0  0  0  0  0  0  0  0  0  0  0  0
   11.2180   39.3530   32.3730 N   0  0  0  0  0  0  0  0  0  0  0  0
   11.9230   38.9250   31.2570 C   0  0  0  0  0  0  0  0  0  0  0  0
   11.4990   39.1680   29.9520 C   0  0  0  0  0  0  0  0  0  0  0  0
   12.2610   38.6980   28.9200 C   0  0  0  0  0  0  0  0  0  0  0  0
   13.4510   37.9890   29.1110 C   0  0  0  0  0  0  0  0  0  0  0  0
   14.2220   37.5220   27.9870 C   0  0  0  0  0  0  0  0  0  0  0  0
   13.7920   37.6600   26.7030 N   0  0  0  0  0  0  0  0  0  0  0  0
   15.3790   36.8700   28.1410 N   0  0  0  0  0  0  0  0  0  0  0  0
   13.8740   37.7410   30.4220 C   0  0  0  0  0  0  0  0  0  0  0  0
   13.1180   38.2170   31.4570 C   0  0  0  0  0  0  0  0  0  0  0  0
  2  1  1  0
  3  2  2  0
 16  2  1  0
  4  3  1  0
 10  3  1  0
  5  4  1  0
  6  5  1  0
  9  5  1  0
  7  6  1  0
  8  7  1  0
  9  8  1  0
 11 10  2  0
 12 11  1  0
 15 11  1  0
 13 12  1  0
 14 13  1  0
 16 15  2  0
 17 16  1  0
 18 17  1  0
 21 17  1  0
 19 18  2  0
 20 18  1  0
 22 21  1  0
 23 22  2  0
 30 22  1  0
 24 23  1  0
 25 24  2  0
 26 25  1  0
 29 25  1  0
 27 26  1  0
 28 26  2  0
 30 29  2  0
A    1
F30
A    2
C12
A    3
C13
A    4
O25
A    5
C26
A    6
C27
A    7
C29
A    8
O28
A    9
C31
A   10
C8
A   11
C9
A   12
O23
A   13
C24
A   14
C30
A   15
C10
A   16
C11
A   17
C14
A   18
C15
A   19
O2
A   20
O1
A   21
N3
A   22
C1
A   23
C2
A   24
C3
A   25
C4
A   26
C7
A   27
N1
A   28
N2
A   29
C5
A   30
C6
M  END
>  <Id>  (27) 
2BZ6_346_H_1258

>  <ChainId>  (27) 
H

>  <AsymId>  (27) 
C

>  <SeqNum>  (27) 
1258

>  <Name>  (27) 
(R)-(4-CARBAMIMIDOYL-PHENYLAMINO)-[5-ETHOXY-2-FLUORO-3-[(R)-TETRAHYDRO-FURAN-3-YLOXY]-PHENYL]-ACETIC ACID

>  <SystematicName>  (27) 
(2R)-2-[(4-carbamimidoylphenyl)amino]-2-[5-ethoxy-2-fluoro-3-[(3R)-oxolan-3-yl]oxy-phenyl]ethanoic acid

>  <Synonyms>  (27) 
(2R)-({4-[AMINO(IMINO)METHYL]PHENYL}AMINO){5-ETHOXY-2-FLUORO-3-[(3R)-TETRAHYDROFURAN-3-YLOXY]PHENYL}ACETIC ACID

>  <Type>  (27) 
NON-POLYMER

>  <Formula>  (27) 
C21 H24 F N3 O5

>  <ObservedFormula>  (27) 
C21 F N3 O5

>  <MolecularWeight>  (27) 
417.431

>  <ModifiedDate>  (27) 
2011-06-04

>  <Parent>  (27) 


>  <OneLetterCode>  (27) 


>  <SubcomponentList>  (27) 


>  <AmbiguousFlag>  (27) 
N

>  <InsertionCode>  (27) 


>  <InstanceId>  (27) 
2BZ6_346_H_1258

>  <ChemCompId>  (27) 
346

>  <PdbId>  (27) 
2BZ6

>  <ResidueNumber>  (27) 
1258

>  <InChI>  (27) 
InChI=1S/C21H24FN3O5/c1-2-29-15-9-16(18(22)17(10-15)30-14-7-8-28-11-14)19(21(26)27)25-13-5-3-12(4-6-13)20(23)24/h3-6,9-10,14,19,25H,2,7-8,11H2,1H3,(H3,23,24)(H,26,27)/t14-,19-/m1/s1

>  <InChIKey>  (27) 
PGYOHIAQCFZQDK-AUUYWEPGSA-N

>  <SMILES>  (27) 
[H]/N=C(\c1ccc(cc1)N[C@H](c2cc(cc(c2F)O[C@@H]3CCOC3)OCC)C(=O)O)/N

>  <MissingHeavyAtoms>  (27) 
0

>  <Model>  (27) 
1

>  <AltIds>  (27) 


>  <pKI>  (27) 
7.08

>  <ChemblID>  (27) 
-

>  <standardized_canonical_smiles>  (27) 
CCOc1cc(O[C@@H]2CCOC2)c(F)c([C@@H](Nc2ccc(C(=N)N)cc2)C(=O)O)c1

$$$$
4ZXX_4T0_H_301
     RDKit          3D

 42 46  0  0  0  0  0  0  0  0999 V2000
    8.3450   35.3290   26.5820 C   0  0  0  0  0  0  0  0  0  0  0  0
    7.2010   38.1390   24.3420 C   0  0  0  0  0  0  0  0  0  0  0  0
    7.0540   37.2810   25.6090 C   0  0  0  0  0  0  0  0  0  0  0  0
    9.3570   33.2790   27.3020 C   0  0  0  0  0  0  0  0  0  0  0  0
    5.7380   39.8710   22.1810 C   0  0  0  0  0  0  0  0  0  0  0  0
    4.5850   39.2450   22.6700 C   0  0  0  0  0  0  0  0  0  0  0  0
    3.5770   38.7720   21.8330 C   0  0  0  0  0  0  0  0  0  0  0  0
    3.7260   38.9120   20.4610 C   0  0  0  0  0  0  0  0  0  0  0  0
    8.5380   34.8690   28.9590 C   0  0  0  0  0  0  0  0  0  0  0  0
    8.1050   35.6880   27.8910 C   0  0  0  0  0  0  0  0  0  0  0  0
    1.8190   38.3100   23.5730 C   0  0  0  0  0  0  0  0  0  0  0  0
    6.8050   39.4240   24.3810 N   0  0  0  0  0  0  0  0  0  0  0  0
    6.8350   40.2500   23.1580 C   0  0  0  0  0  0  0  0  0  0  0  0
    6.6650   41.6640   23.7340 C   0  0  0  0  0  0  0  0  0  0  0  0
    5.7750   41.4460   24.9280 C   0  0  0  0  0  0  0  0  0  0  0  0
    6.3230   40.1890   25.5460 C   0  0  0  0  0  0  0  0  0  0  0  0
    9.6100   33.3690   31.0840 N   0  0  0  0  0  0  0  0  0  0  0  0
    9.0030   34.5440   31.2910 C   0  0  0  0  0  0  0  0  0  0  0  0
    8.4490   35.2980   30.3050 C   0  0  0  0  0  0  0  0  0  0  0  0
    9.6980   32.8890   29.7980 C   0  0  0  0  0  0  0  0  0  0  0  0
    9.1780   33.6270   28.6670 C   0  0  0  0  0  0  0  0  0  0  0  0
    8.9610   34.1120   26.3000 C   0  0  0  0  0  0  0  0  0  0  0  0
    7.9410   36.1310   25.5200 N   0  0  0  0  0  0  0  0  0  0  0  0
    7.7140   37.6630   23.3510 O   0  0  0  0  0  0  0  0  0  0  0  0
   10.3230   31.7070   29.6470 N   0  0  0  0  0  0  0  0  0  0  0  0
    4.8350   39.5620   19.9450 C   0  0  0  0  0  0  0  0  0  0  0  0
    5.8260   40.0390   20.7950 C   0  0  0  0  0  0  0  0  0  0  0  0
    7.1670   40.8690   19.9680 S   0  0  0  0  0  0  0  0  0  0  0  0
    6.6120   41.5360   18.8210 O   0  0  0  0  0  0  0  0  0  0  0  0
    7.9120   41.6470   20.9200 O   0  0  0  0  0  0  0  0  0  0  0  0
    8.2480   39.5470   19.3620 C   0  0  0  0  0  0  0  0  0  0  0  0
    8.9370   38.7710   20.4690 C   0  0  0  0  0  0  0  0  0  0  0  0
    9.2270   40.1080   18.3480 C   0  0  0  0  0  0  0  0  0  0  0  0
    2.3380   38.2750   22.3120 N   0  0  0  0  0  0  0  0  0  0  0  0
    2.1820   39.1110   24.4280 O   0  0  0  0  0  0  0  0  0  0  0  0
    5.6040   36.8340   25.7230 C   0  0  0  0  0  0  0  0  0  0  0  0
    4.9080   36.9770   26.9170 C   0  0  0  0  0  0  0  0  0  0  0  0
    3.5990   36.5370   27.0300 C   0  0  0  0  0  0  0  0  0  0  0  0
    2.9680   35.9550   25.9520 C   0  0  0  0  0  0  0  0  0  0  0  0
    3.6480   35.8030   24.7590 C   0  0  0  0  0  0  0  0  0  0  0  0
    4.9570   36.2380   24.6450 C   0  0  0  0  0  0  0  0  0  0  0  0
    0.7130   37.3310   23.8310 C   0  0  0  0  0  0  0  0  0  0  0  0
 10  1  1  0
 22  1  2  0
 23  1  1  0
  3  2  1  0
 12  2  1  0
 24  2  2  0
 23  3  1  0
 36  3  1  0
 21  4  2  0
 22  4  1  0
  6  5  2  0
 13  5  1  0
 27  5  1  0
  7  6  1  0
  8  7  2  0
 34  7  1  0
 26  8  1  0
 10  9  2  0
 19  9  1  0
 21  9  1  0
 34 11  1  0
 35 11  2  0
 42 11  1  0
 13 12  1  0
 16 12  1  0
 14 13  1  0
 15 14  1  0
 16 15  1  0
 18 17  1  0
 20 17  2  0
 19 18  2  0
 21 20  1  0
 25 20  1  0
 27 26  2  0
 28 27  1  0
 29 28  2  0
 30 28  2  0
 31 28  1  0
 32 31  1  0
 33 31  1  0
 37 36  2  0
 41 36  1  0
 38 37  1  0
 39 38  2  0
 40 39  1  0
 41 40  2  0
A    1
C13
A    2
C18
A    3
C17
A    4
C15
A    5
C21
A    6
C22
A    7
C23
A    8
C24
A    9
C11
A   10
C12
A   11
C34
A   12
N1
A   13
C2
A   14
C3
A   15
C4
A   16
C5
A   17
N6
A   18
C7
A   19
C8
A   20
C9
A   21
C10
A   22
C14
A   23
N16
A   24
O19
A   25
N20
A   26
C25
A   27
C26
A   28
S27
A   29
O28
A   30
O29
A   31
C30
A   32
C31
A   33
C32
A   34
N33
A   35
O35
A   36
C36
A   37
C37
A   38
C38
A   39
C39
A   40
C40
A   41
C41
A   42
C42
M  END
>  <Id>  (28) 
4ZXX_4T0_H_301

>  <ChainId>  (28) 
H

>  <AsymId>  (28) 
C

>  <SeqNum>  (28) 
301

>  <Name>  (28) 
N-{3-[(2R)-1-{(2R)-2-[(1-aminoisoquinolin-6-yl)amino]-2-phenylacetyl}pyrrolidin-2-yl]-4-(propan-2-ylsulfonyl)phenyl}acetamide

>  <SystematicName>  (28) 
N-[3-[(2R)-1-[(2R)-2-[(1-azanylisoquinolin-6-yl)amino]-2-phenyl-ethanoyl]pyrrolidin-2-yl]-4-propan-2-ylsulfonyl-phenyl]ethanamide

>  <Synonyms>  (28) 


>  <Type>  (28) 
NON-POLYMER

>  <Formula>  (28) 
C32 H35 N5 O4 S

>  <ObservedFormula>  (28) 
C32 S N5 O4

>  <MolecularWeight>  (28) 
585.716

>  <ModifiedDate>  (28) 
2015-07-17

>  <Parent>  (28) 


>  <OneLetterCode>  (28) 


>  <SubcomponentList>  (28) 


>  <AmbiguousFlag>  (28) 
N

>  <InsertionCode>  (28) 


>  <InstanceId>  (28) 
4ZXX_4T0_H_301

>  <ChemCompId>  (28) 
4T0

>  <PdbId>  (28) 
4ZXX

>  <ResidueNumber>  (28) 
301

>  <InChI>  (28) 
InChI=1S/C32H35N5O4S/c1-20(2)42(40,41)29-14-12-25(35-21(3)38)19-27(29)28-10-7-17-37(28)32(39)30(22-8-5-4-6-9-22)36-24-11-13-26-23(18-24)15-16-34-31(26)33/h4-6,8-9,11-16,18-20,28,30,36H,7,10,17H2,1-3H3,(H2,33,34)(H,35,38)/t28-,30-/m1/s1

>  <InChIKey>  (28) 
KDJVHAKXSVDSAV-PQHLKRTFSA-N

>  <SMILES>  (28) 
CC(C)S(=O)(=O)c1ccc(cc1[C@H]2CCCN2C(=O)[C@@H](c3ccccc3)Nc4ccc5c(c4)ccnc5N)NC(=O)C

>  <MissingHeavyAtoms>  (28) 
0

>  <Model>  (28) 
1

>  <AltIds>  (28) 


>  <pKI>  (28) 
8.1

>  <ChemblID>  (28) 
-

>  <standardized_canonical_smiles>  (28) 
CC(=O)Nc1ccc(S(=O)(=O)C(C)C)c([C@H]2CCCN2C(=O)[C@H](Nc2ccc3c(N)nccc3c2)c2ccccc2)c1

$$$$
5TQF_7KR_H_301
     RDKit          3D

 41 46  0  0  0  0  0  0  0  0999 V2000
    3.6050   38.5160   21.7800 C   0  0  0  0  0  0  0  0  0  0  0  0
    8.2260   39.3270   19.7090 C   0  0  0  0  0  0  0  0  0  0  0  0
    5.7770   39.9730   20.8570 C   0  0  0  0  0  0  0  0  0  0  0  0
    9.6230   39.2280   20.1520 C   0  0  0  0  0  0  0  0  0  0  0  0
    9.3210   39.4930   18.7430 C   0  0  0  0  0  0  0  0  0  0  0  0
    6.1330   39.9230   25.6370 C   0  0  0  0  0  0  0  0  0  0  0  0
    2.5710   35.2790   24.1400 C   0  0  0  0  0  0  0  0  0  0  0  0
    4.7530   39.6200   19.9860 C   0  0  0  0  0  0  0  0  0  0  0  0
    3.6750   38.8890   20.4450 C   0  0  0  0  0  0  0  0  0  0  0  0
    8.2800   35.5640   27.9260 C   0  0  0  0  0  0  0  0  0  0  0  0
    1.4490   36.2940   23.8510 C   0  0  0  0  0  0  0  0  0  0  0  0
    8.7650   34.7650   28.9860 C   0  0  0  0  0  0  0  0  0  0  0  0
    7.0420   37.0540   25.7220 C   0  0  0  0  0  0  0  0  0  0  0  0
    5.6070   36.6390   26.0170 C   0  0  0  0  0  0  0  0  0  0  0  0
    4.7940   36.1240   25.0060 C   0  0  0  0  0  0  0  0  0  0  0  0
    3.4650   35.7770   25.2530 C   0  0  0  0  0  0  0  0  0  0  0  0
    2.9640   35.9370   26.5400 C   0  0  0  0  0  0  0  0  0  0  0  0
    3.7610   36.4500   27.5510 C   0  0  0  0  0  0  0  0  0  0  0  0
    5.0730   36.8040   27.2890 C   0  0  0  0  0  0  0  0  0  0  0  0
    6.7950   40.0060   23.2230 C   0  0  0  0  0  0  0  0  0  0  0  0
    6.7320   39.2500   24.4870 N   0  0  0  0  0  0  0  0  0  0  0  0
    5.7300   39.6200   22.2200 C   0  0  0  0  0  0  0  0  0  0  0  0
    4.6200   38.8930   22.6530 C   0  0  0  0  0  0  0  0  0  0  0  0
    2.5600   37.6830   22.2410 N   0  0  0  0  0  0  0  0  0  0  0  0
    7.1860   40.7350   20.1020 S   0  0  0  0  0  0  0  0  0  0  0  0
    7.8770   41.5580   21.0580 O   0  0  0  0  0  0  0  0  0  0  0  0
    6.7660   41.3330   18.8630 O   0  0  0  0  0  0  0  0  0  0  0  0
    2.0490   37.6250   23.4900 C   0  0  0  0  0  0  0  0  0  0  0  0
    2.1670   38.5250   24.3200 O   0  0  0  0  0  0  0  0  0  0  0  0
    7.9390   35.9250   25.5550 N   0  0  0  0  0  0  0  0  0  0  0  0
    8.4330   35.1640   26.6140 C   0  0  0  0  0  0  0  0  0  0  0  0
    9.0760   33.9600   26.3270 C   0  0  0  0  0  0  0  0  0  0  0  0
    9.5290   33.1480   27.3240 C   0  0  0  0  0  0  0  0  0  0  0  0
    9.3970   33.5220   28.6910 C   0  0  0  0  0  0  0  0  0  0  0  0
    9.8940   32.7510   29.8120 C   0  0  0  0  0  0  0  0  0  0  0  0
    9.7860   33.2200   31.1100 N   0  0  0  0  0  0  0  0  0  0  0  0
    9.1790   34.4000   31.3240 C   0  0  0  0  0  0  0  0  0  0  0  0
    8.6530   35.1750   30.3400 C   0  0  0  0  0  0  0  0  0  0  0  0
   10.4370   31.5280   29.6490 N   0  0  0  0  0  0  0  0  0  0  0  0
    7.1530   37.9660   24.4930 C   0  0  0  0  0  0  0  0  0  0  0  0
    7.6530   37.4680   23.4960 O   0  0  0  0  0  0  0  0  0  0  0  0
  9  1  1  0
 23  1  2  0
 24  1  1  0
  4  2  1  0
  5  2  1  0
 25  2  1  0
  8  3  1  0
 22  3  2  0
 25  3  1  0
  5  4  1  0
 21  6  1  0
 11  7  1  0
 16  7  1  0
  9  8  2  0
 12 10  2  0
 31 10  1  0
 28 11  1  0
 34 12  1  0
 38 12  1  0
 14 13  1  0
 30 13  1  0
 40 13  1  0
 15 14  1  0
 19 14  2  0
 16 15  2  0
 17 16  1  0
 18 17  2  0
 19 18  1  0
 21 20  1  0
 22 20  1  0
 40 21  1  0
 23 22  1  0
 28 24  1  0
 26 25  2  0
 27 25  2  0
 29 28  2  0
 31 30  1  0
 32 31  2  0
 33 32  1  0
 34 33  2  0
 35 34  1  0
 36 35  2  0
 39 35  1  0
 37 36  1  0
 38 37  2  0
 41 40  2  0
A    1
C13
A    2
C18
A    3
C16
A    4
C19
A    5
C20
A    6
C23
A    7
C24
A    8
C11
A    9
C12
A   10
C34
A   11
C27
A   12
C33
A   13
C1
A   14
C2
A   15
C3
A   16
C4
A   17
C5
A   18
C6
A   19
C7
A   20
C8
A   21
N9
A   22
C10
A   23
C14
A   24
N15
A   25
S17
A   26
O21
A   27
O22
A   28
C25
A   29
O26
A   30
N28
A   31
C29
A   32
C30
A   33
C31
A   34
C32
A   35
C35
A   36
N36
A   37
C37
A   38
C38
A   39
N39
A   40
C40
A   41
O41
M  END
>  <Id>  (29) 
5TQF_7KR_H_301

>  <ChainId>  (29) 
H

>  <AsymId>  (29) 
C

>  <SeqNum>  (29) 
301

>  <Name>  (29) 
(11R)-11-[(1-aminoisoquinolin-6-yl)amino]-16-(cyclopropylsulfonyl)-13-methyl-2,13-diazatricyclo[13.3.1.1~6,10~]icosa-1(19),6(20),7,9,15,17-hexaene-3,12-dione

>  <SystematicName>  (29) 
(11~{R})-11-[(1-azanylisoquinolin-6-yl)amino]-16-cyclopropylsulfonyl-13-methyl-2,13-diazatricyclo[13.3.1.1^{6,10}]icosa-1(19),6(20),7,9,15,17-hexaene-3,12-dione

>  <Synonyms>  (29) 


>  <Type>  (29) 
NON-POLYMER

>  <Formula>  (29) 
C31 H31 N5 O4 S

>  <ObservedFormula>  (29) 
C31 S N5 O4

>  <MolecularWeight>  (29) 
569.674

>  <ModifiedDate>  (29) 
2017-01-26

>  <Parent>  (29) 


>  <OneLetterCode>  (29) 


>  <SubcomponentList>  (29) 


>  <AmbiguousFlag>  (29) 
N

>  <InsertionCode>  (29) 


>  <InstanceId>  (29) 
5TQF_7KR_H_301

>  <ChemCompId>  (29) 
7KR

>  <PdbId>  (29) 
5TQF

>  <ResidueNumber>  (29) 
301

>  <InChI>  (29) 
InChI=1S/C31H31N5O4S/c1-36-18-22-17-23(7-11-27(22)41(39,40)25-8-9-25)34-28(37)12-5-19-3-2-4-21(15-19)29(31(36)38)35-24-6-10-26-20(16-24)13-14-33-30(26)32/h2-4,6-7,10-11,13-17,25,29,35H,5,8-9,12,18H2,1H3,(H2,32,33)(H,34,37)/t29-/m1/s1

>  <InChIKey>  (29) 
LGIRRDHRFMYVGC-GDLZYMKVSA-N

>  <SMILES>  (29) 
CN1Cc2cc(ccc2S(=O)(=O)C3CC3)NC(=O)CCc4cccc(c4)[C@H](C1=O)Nc5ccc6c(c5)ccnc6N

>  <MissingHeavyAtoms>  (29) 
0

>  <Model>  (29) 
1

>  <AltIds>  (29) 


>  <pKI>  (29) 
8.3

>  <ChemblID>  (29) 
-

>  <standardized_canonical_smiles>  (29) 
CN1Cc2cc(ccc2S(=O)(=O)C2CC2)NC(=O)CCc2cccc(c2)[C@@H](Nc2ccc3c(N)nccc3c2)C1=O

$$$$
5TQE_7KQ_H_301
     RDKit          3D

 42 47  0  0  0  0  0  0  0  0999 V2000
    8.7020   34.8520   28.9560 C   0  0  0  0  0  0  0  0  0  0  0  0
    9.0660   34.0440   26.3070 C   0  0  0  0  0  0  0  0  0  0  0  0
    8.4210   35.2510   26.5760 C   0  0  0  0  0  0  0  0  0  0  0  0
    8.2480   35.6570   27.8830 C   0  0  0  0  0  0  0  0  0  0  0  0
    9.8300   32.8440   29.8030 C   0  0  0  0  0  0  0  0  0  0  0  0
    9.5090   33.2410   27.3130 C   0  0  0  0  0  0  0  0  0  0  0  0
    4.5720   39.1250   22.6600 C   0  0  0  0  0  0  0  0  0  0  0  0
    5.7340   39.7310   22.1690 C   0  0  0  0  0  0  0  0  0  0  0  0
    5.7840   40.0020   20.7890 C   0  0  0  0  0  0  0  0  0  0  0  0
    9.0670   34.4790   31.3010 C   0  0  0  0  0  0  0  0  0  0  0  0
    8.5420   35.2470   30.3070 C   0  0  0  0  0  0  0  0  0  0  0  0
    3.5210   38.7770   21.8150 C   0  0  0  0  0  0  0  0  0  0  0  0
    8.1430   39.2720   19.4840 C   0  0  0  0  0  0  0  0  0  0  0  0
    3.8200   36.6710   27.4910 C   0  0  0  0  0  0  0  0  0  0  0  0
    5.1130   37.0470   27.1870 C   0  0  0  0  0  0  0  0  0  0  0  0
    5.6450   36.7880   25.9320 C   0  0  0  0  0  0  0  0  0  0  0  0
    4.8430   36.1780   24.9700 C   0  0  0  0  0  0  0  0  0  0  0  0
    3.5280   35.8120   25.2590 C   0  0  0  0  0  0  0  0  0  0  0  0
    3.0420   36.0410   26.5410 C   0  0  0  0  0  0  0  0  0  0  0  0
    7.0880   37.1580   25.6210 C   0  0  0  0  0  0  0  0  0  0  0  0
    7.9470   35.9980   25.4920 N   0  0  0  0  0  0  0  0  0  0  0  0
    7.2030   38.0380   24.3890 C   0  0  0  0  0  0  0  0  0  0  0  0
    9.6990   33.3120   31.0950 N   0  0  0  0  0  0  0  0  0  0  0  0
    9.3480   33.6120   28.6730 C   0  0  0  0  0  0  0  0  0  0  0  0
   10.4340   31.6470   29.6410 N   0  0  0  0  0  0  0  0  0  0  0  0
    7.6620   37.5350   23.3790 O   0  0  0  0  0  0  0  0  0  0  0  0
    4.7310   39.6700   19.9510 C   0  0  0  0  0  0  0  0  0  0  0  0
    3.6110   39.0530   20.4600 C   0  0  0  0  0  0  0  0  0  0  0  0
    2.3090   38.1540   22.1850 N   0  0  0  0  0  0  0  0  0  0  0  0
    6.8650   40.0570   23.1190 C   0  0  0  0  0  0  0  0  0  0  0  0
    6.7960   39.3290   24.3960 N   0  0  0  0  0  0  0  0  0  0  0  0
    6.2520   40.0550   25.5410 C   0  0  0  0  0  0  0  0  0  0  0  0
    7.1820   40.7060   19.9700 S   0  0  0  0  0  0  0  0  0  0  0  0
    6.7100   41.3420   18.7700 O   0  0  0  0  0  0  0  0  0  0  0  0
    7.9640   41.4820   20.8960 O   0  0  0  0  0  0  0  0  0  0  0  0
    9.2700   38.7960   20.3060 C   0  0  0  0  0  0  0  0  0  0  0  0
    9.5260   39.4310   19.0030 C   0  0  0  0  0  0  0  0  0  0  0  0
    2.6320   35.2260   24.1930 C   0  0  0  0  0  0  0  0  0  0  0  0
    1.8530   37.8770   23.4260 C   0  0  0  0  0  0  0  0  0  0  0  0
    1.0040   36.8340   23.3320 O   0  0  0  0  0  0  0  0  0  0  0  0
    2.1370   38.4570   24.4540 O   0  0  0  0  0  0  0  0  0  0  0  0
    1.1950   35.7540   24.2810 C   0  0  0  0  0  0  0  0  0  0  0  0
  4  1  2  0
 11  1  1  0
 24  1  1  0
  3  2  2  0
  6  2  1  0
  4  3  1  0
 21  3  1  0
 23  5  2  0
 24  5  1  0
 25  5  1  0
 24  6  2  0
  8  7  2  0
 12  7  1  0
  9  8  1  0
 30  8  1  0
 27  9  2  0
 33  9  1  0
 11 10  2  0
 23 10  1  0
 28 12  2  0
 29 12  1  0
 33 13  1  0
 36 13  1  0
 37 13  1  0
 15 14  1  0
 19 14  2  0
 16 15  2  0
 17 16  1  0
 20 16  1  0
 18 17  2  0
 19 18  1  0
 38 18  1  0
 21 20  1  0
 22 20  1  0
 26 22  2  0
 31 22  1  0
 28 27  1  0
 39 29  1  0
 31 30  1  0
 32 31  1  0
 34 33  2  0
 35 33  2  0
 37 36  1  0
 42 38  1  0
 40 39  1  0
 41 39  2  0
 42 40  1  0
A    1
C13
A    2
C18
A    3
C17
A    4
C16
A    5
C15
A    6
C19
A    7
C22
A    8
C23
A    9
C24
A   10
C11
A   11
C12
A   12
C27
A   13
C33
A   14
C1
A   15
C2
A   16
C3
A   17
C4
A   18
C5
A   19
C6
A   20
C7
A   21
N8
A   22
C9
A   23
N10
A   24
C14
A   25
N20
A   26
O21
A   27
C25
A   28
C26
A   29
N28
A   30
C29
A   31
N30
A   32
C31
A   33
S32
A   34
O34
A   35
O35
A   36
C36
A   37
C37
A   38
C38
A   39
C39
A   40
O40
A   41
O41
A   42
C42
M  END
>  <Id>  (30) 
5TQE_7KQ_H_301

>  <ChainId>  (30) 
H

>  <AsymId>  (30) 
C

>  <SeqNum>  (30) 
301

>  <Name>  (30) 
(5R)-5-[(1-aminoisoquinolin-6-yl)amino]-19-(cyclopropylsulfonyl)-3-methyl-13-oxa-3,15-diazatricyclo[14.3.1.1~6,10~]henicosa-1(20),6(21),7,9,16,18-hexaene-4,14-dione

>  <SystematicName>  (30) 
(5~{R})-5-[(1-azanylisoquinolin-6-yl)amino]-19-cyclopropylsulfonyl-3-methyl-13-oxa-3,15-diazatricyclo[14.3.1.1^{6,10}]henicosa-1(19),6,8,10(21),16(20),17-hexaene-4,14-dione

>  <Synonyms>  (30) 


>  <Type>  (30) 
NON-POLYMER

>  <Formula>  (30) 
C31 H31 N5 O5 S

>  <ObservedFormula>  (30) 
C31 S N5 O5

>  <MolecularWeight>  (30) 
585.673

>  <ModifiedDate>  (30) 
2017-01-26

>  <Parent>  (30) 


>  <OneLetterCode>  (30) 


>  <SubcomponentList>  (30) 


>  <AmbiguousFlag>  (30) 
N

>  <InsertionCode>  (30) 


>  <InstanceId>  (30) 
5TQE_7KQ_H_301

>  <ChemCompId>  (30) 
7KQ

>  <PdbId>  (30) 
5TQE

>  <ResidueNumber>  (30) 
301

>  <InChI>  (30) 
InChI=1S/C31H31N5O5S/c1-36-18-22-17-24(6-10-27(22)42(39,40)25-7-8-25)35-31(38)41-14-12-19-3-2-4-21(15-19)28(30(36)37)34-23-5-9-26-20(16-23)11-13-33-29(26)32/h2-6,9-11,13,15-17,25,28,34H,7-8,12,14,18H2,1H3,(H2,32,33)(H,35,38)/t28-/m1/s1

>  <InChIKey>  (30) 
UCRGDFCSSTYSRG-MUUNZHRXSA-N

>  <SMILES>  (30) 
CN1Cc2cc(ccc2S(=O)(=O)C3CC3)NC(=O)OCCc4cccc(c4)[C@H](C1=O)Nc5ccc6c(c5)ccnc6N

>  <MissingHeavyAtoms>  (30) 
0

>  <Model>  (30) 
1

>  <AltIds>  (30) 


>  <pKI>  (30) 
6.72

>  <ChemblID>  (30) 
-

>  <standardized_canonical_smiles>  (30) 
CN1Cc2cc(ccc2S(=O)(=O)C2CC2)NC(=O)OCCc2cccc(c2)[C@@H](Nc2ccc3c(N)nccc3c2)C1=O

$$$$
4X8S_3Z7_H_301
     RDKit          3D

 10 10  0  0  0  0  0  0  0  0999 V2000
    9.4760   34.3640   27.9280 C   0  0  0  0  0  0  0  0  0  0  0  0
    9.6750   33.0440   27.5780 C   0  0  0  0  0  0  0  0  0  0  0  0
    9.5710   34.7640   29.2710 C   0  0  0  0  0  0  0  0  0  0  0  0
    9.8920   33.8210   30.2460 C   0  0  0  0  0  0  0  0  0  0  0  0
    9.9910   32.1300   28.5640 C   0  0  0  0  0  0  0  0  0  0  0  0
   10.1090   32.4980   29.8940 C   0  0  0  0  0  0  0  0  0  0  0  0
    9.2400   35.3800   27.0450 O   0  0  0  0  0  0  0  0  0  0  0  0
   10.2370   30.3160   28.0730 Br  0  0  0  0  0  0  0  0  0  0  0  0
    9.3980   36.0660   29.6100 O   0  0  0  0  0  0  0  0  0  0  0  0
    9.3400   35.0900   25.6520 C   0  0  0  0  0  0  0  0  0  0  0  0
  2  1  2  0
  3  1  1  0
  7  1  1  0
  5  2  1  0
  4  3  2  0
  9  3  1  0
  6  4  1  0
  6  5  2  0
  8  5  1  0
 10  7  1  0
A    1
C1
A    2
C2
A    3
C3
A    4
C4
A    5
C5
A    6
C6
A    7
O7
A    8
BR8
A    9
O9
A   10
C10
M  END
>  <Id>  (31) 
4X8S_3Z7_H_301

>  <ChainId>  (31) 
H

>  <AsymId>  (31) 
C

>  <SeqNum>  (31) 
301

>  <Name>  (31) 
4-bromo-2-methoxyphenol

>  <SystematicName>  (31) 
4-bromanyl-2-methoxy-phenol

>  <Synonyms>  (31) 


>  <Type>  (31) 
NON-POLYMER

>  <Formula>  (31) 
C7 H7 Br O2

>  <ObservedFormula>  (31) 
Br C7 O2

>  <MolecularWeight>  (31) 
203.033

>  <ModifiedDate>  (31) 
2015-03-20

>  <Parent>  (31) 


>  <OneLetterCode>  (31) 


>  <SubcomponentList>  (31) 


>  <AmbiguousFlag>  (31) 
N

>  <InsertionCode>  (31) 


>  <InstanceId>  (31) 
4X8S_3Z7_H_301

>  <ChemCompId>  (31) 
3Z7

>  <PdbId>  (31) 
4X8S

>  <ResidueNumber>  (31) 
301

>  <InChI>  (31) 
InChI=1S/C7H7BrO2/c1-10-7-4-5(8)2-3-6(7)9/h2-4,9H,1H3

>  <InChIKey>  (31) 
WHSIIJQOEGXWSN-UHFFFAOYSA-N

>  <SMILES>  (31) 
COc1cc(ccc1O)Br

>  <MissingHeavyAtoms>  (31) 
0

>  <Model>  (31) 
1

>  <AltIds>  (31) 


>  <pKI>  (31) 
1.89

>  <ChemblID>  (31) 
-

>  <standardized_canonical_smiles>  (31) 
COc1cc(Br)ccc1O

$$$$
4X8V_3Z9_H_301
     RDKit          3D

 47 51  0  0  0  0  0  0  0  0999 V2000
    7.2670   37.4310   25.8850 C   0  0  0  0  0  0  0  0  0  0  0  0
    6.7720   40.3180   23.3570 C   0  0  0  0  0  0  0  0  0  0  0  0
    7.2590   38.2750   24.5980 C   0  0  0  0  0  0  0  0  0  0  0  0
    6.5160   41.7500   23.8510 C   0  0  0  0  0  0  0  0  0  0  0  0
    5.6850   41.5510   25.1110 C   0  0  0  0  0  0  0  0  0  0  0  0
    6.1530   40.2570   25.7360 C   0  0  0  0  0  0  0  0  0  0  0  0
    5.7590   39.8410   22.3310 C   0  0  0  0  0  0  0  0  0  0  0  0
    5.1160   36.3220   25.2000 C   0  0  0  0  0  0  0  0  0  0  0  0
    3.8190   35.8990   25.4520 C   0  0  0  0  0  0  0  0  0  0  0  0
    3.7800   38.9090   20.5560 C   0  0  0  0  0  0  0  0  0  0  0  0
    5.2780   37.1770   27.4410 C   0  0  0  0  0  0  0  0  0  0  0  0
    3.6220   38.7120   21.9230 C   0  0  0  0  0  0  0  0  0  0  0  0
    8.4650   35.8060   28.0980 C   0  0  0  0  0  0  0  0  0  0  0  0
    9.7380   33.4450   27.4050 C   0  0  0  0  0  0  0  0  0  0  0  0
    9.3430   34.3260   26.4190 C   0  0  0  0  0  0  0  0  0  0  0  0
    8.6800   35.5030   26.7560 C   0  0  0  0  0  0  0  0  0  0  0  0
    9.4890   33.7040   28.7480 C   0  0  0  0  0  0  0  0  0  0  0  0
    8.8580   34.9110   29.1010 C   0  0  0  0  0  0  0  0  0  0  0  0
    8.5350   35.2180   30.5130 C   0  0  0  0  0  0  0  0  0  0  0  0
    9.0450   34.3760   31.4270 N   0  0  0  0  0  0  0  0  0  0  0  0
    9.9280   33.2640   31.1650 C   0  0  0  0  0  0  0  0  0  0  0  0
    9.7610   32.6500   29.7930 C   0  0  0  0  0  0  0  0  0  0  0  0
    7.8370   36.1680   30.8490 O   0  0  0  0  0  0  0  0  0  0  0  0
    8.1870   36.3150   25.7310 N   0  0  0  0  0  0  0  0  0  0  0  0
    5.8490   36.9710   26.1870 C   0  0  0  0  0  0  0  0  0  0  0  0
    7.7750   37.8160   23.6020 O   0  0  0  0  0  0  0  0  0  0  0  0
    6.7580   39.5220   24.6120 N   0  0  0  0  0  0  0  0  0  0  0  0
    3.2320   36.1460   26.7230 C   0  0  0  0  0  0  0  0  0  0  0  0
    3.9820   36.7700   27.7190 C   0  0  0  0  0  0  0  0  0  0  0  0
    1.9160   35.7780   26.8430 O   0  0  0  0  0  0  0  0  0  0  0  0
    1.2830   35.9110   28.1150 C   0  0  0  0  0  0  0  0  0  0  0  0
    3.0510   35.1710   24.5740 O   0  0  0  0  0  0  0  0  0  0  0  0
    3.5710   34.9090   23.2680 C   0  0  0  0  0  0  0  0  0  0  0  0
    4.6120   39.1740   22.7880 C   0  0  0  0  0  0  0  0  0  0  0  0
    4.8960   39.5710   20.0740 C   0  0  0  0  0  0  0  0  0  0  0  0
    5.8730   40.0320   20.9490 C   0  0  0  0  0  0  0  0  0  0  0  0
    7.1940   40.9200   20.1390 S   0  0  0  0  0  0  0  0  0  0  0  0
    8.3570   39.6660   19.5200 C   0  0  0  0  0  0  0  0  0  0  0  0
    6.6230   41.5730   18.9920 O   0  0  0  0  0  0  0  0  0  0  0  0
    7.8940   41.7220   21.1040 O   0  0  0  0  0  0  0  0  0  0  0  0
    8.9320   38.7690   20.5990 C   0  0  0  0  0  0  0  0  0  0  0  0
    9.4330   40.3690   18.7110 C   0  0  0  0  0  0  0  0  0  0  0  0
    2.3900   38.1430   22.3380 N   0  0  0  0  0  0  0  0  0  0  0  0
    1.8600   38.1290   23.5890 C   0  0  0  0  0  0  0  0  0  0  0  0
    0.7620   37.3570   23.5930 O   0  0  0  0  0  0  0  0  0  0  0  0
    2.2580   38.7590   24.5440 O   0  0  0  0  0  0  0  0  0  0  0  0
   -0.0740   37.4440   24.7740 C   0  0  0  0  0  0  0  0  0  0  0  0
  3  1  1  0
 24  1  1  0
 25  1  1  0
  4  2  1  0
  7  2  1  0
 27  2  1  0
 26  3  2  0
 27  3  1  0
  5  4  1  0
  6  5  1  0
 27  6  1  0
 34  7  2  0
 36  7  1  0
  9  8  2  0
 25  8  1  0
 28  9  1  0
 32  9  1  0
 12 10  2  0
 35 10  1  0
 25 11  2  0
 29 11  1  0
 34 12  1  0
 43 12  1  0
 16 13  2  0
 18 13  1  0
 15 14  2  0
 17 14  1  0
 16 15  1  0
 24 16  1  0
 18 17  2  0
 22 17  1  0
 19 18  1  0
 20 19  1  0
 23 19  2  0
 21 20  1  0
 22 21  1  0
 29 28  2  0
 30 28  1  0
 31 30  1  0
 33 32  1  0
 36 35  2  0
 37 36  1  0
 38 37  1  0
 39 37  2  0
 40 37  2  0
 41 38  1  0
 42 38  1  0
 44 43  1  0
 45 44  1  0
 46 44  2  0
 47 45  1  0
A    1
C13
A    2
C18
A    3
C15
A    4
C19
A    5
C20
A    6
C21
A    7
C22
A    8
C23
A    9
C24
A   10
C34
A   11
C27
A   12
C33
A   13
C1
A   14
C2
A   15
C3
A   16
C4
A   17
C5
A   18
C6
A   19
C7
A   20
N8
A   21
C9
A   22
C10
A   23
O11
A   24
N12
A   25
C14
A   26
O16
A   27
N17
A   28
C25
A   29
C26
A   30
O28
A   31
C29
A   32
O30
A   33
C31
A   34
C32
A   35
C35
A   36
C36
A   37
S37
A   38
C38
A   39
O39
A   40
O40
A   41
C41
A   42
C42
A   43
N43
A   44
C44
A   45
O45
A   46
O46
A   47
C47
M  END
>  <Id>  (32) 
4X8V_3Z9_H_301

>  <ChainId>  (32) 
H

>  <AsymId>  (32) 
C

>  <SeqNum>  (32) 
301

>  <Name>  (32) 
methyl {3-[(2R)-1-{(2R)-2-(3,4-dimethoxyphenyl)-2-[(1-oxo-1,2,3,4-tetrahydroisoquinolin-7-yl)amino]acetyl}pyrrolidin-2-yl]-4-(propan-2-ylsulfonyl)phenyl}carbamate

>  <SystematicName>  (32) 
methyl N-[3-[(2R)-1-[(2R)-2-(3,4-dimethoxyphenyl)-2-[(1-oxidanylidene-3,4-dihydro-2H-isoquinolin-7-yl)amino]ethanoyl]pyrrolidin-2-yl]-4-propan-2-ylsulfonyl-phenyl]carbamate

>  <Synonyms>  (32) 


>  <Type>  (32) 
NON-POLYMER

>  <Formula>  (32) 
C34 H40 N4 O8 S

>  <ObservedFormula>  (32) 
C34 S N4 O8

>  <MolecularWeight>  (32) 
664.768

>  <ModifiedDate>  (32) 
2015-03-20

>  <Parent>  (32) 


>  <OneLetterCode>  (32) 


>  <SubcomponentList>  (32) 


>  <AmbiguousFlag>  (32) 
N

>  <InsertionCode>  (32) 


>  <InstanceId>  (32) 
4X8V_3Z9_H_301

>  <ChemCompId>  (32) 
3Z9

>  <PdbId>  (32) 
4X8V

>  <ResidueNumber>  (32) 
301

>  <InChI>  (32) 
InChI=1S/C34H40N4O8S/c1-20(2)47(42,43)30-13-11-24(37-34(41)46-5)19-26(30)27-7-6-16-38(27)33(40)31(22-9-12-28(44-3)29(17-22)45-4)36-23-10-8-21-14-15-35-32(39)25(21)18-23/h8-13,17-20,27,31,36H,6-7,14-16H2,1-5H3,(H,35,39)(H,37,41)/t27-,31-/m1/s1

>  <InChIKey>  (32) 
XGQHTIIEXCNFSG-DLFZDVPBSA-N

>  <SMILES>  (32) 
CC(C)S(=O)(=O)c1ccc(cc1[C@H]2CCCN2C(=O)[C@@H](c3ccc(c(c3)OC)OC)Nc4ccc5c(c4)C(=O)NCC5)NC(=O)OC

>  <MissingHeavyAtoms>  (32) 
0

>  <Model>  (32) 
1

>  <AltIds>  (32) 


>  <pKI>  (32) 
6.89

>  <ChemblID>  (32) 
-

>  <standardized_canonical_smiles>  (32) 
COC(=O)Nc1ccc(S(=O)(=O)C(C)C)c([C@H]2CCCN2C(=O)[C@H](Nc2ccc3c(c2)C(=O)NCC3)c2ccc(OC)c(OC)c2)c1

$$$$
4ZXY_4T1_H_301
     RDKit          3D

 35 39  0  0  0  0  0  0  0  0999 V2000
    7.9910   35.7660   25.7060 C   0  0  0  0  0  0  0  0  0  0  0  0
    4.4850   34.3880   25.0860 C   0  0  0  0  0  0  0  0  0  0  0  0
    5.8350   34.6550   24.9360 C   0  0  0  0  0  0  0  0  0  0  0  0
    8.1000   36.5630   24.3900 C   0  0  0  0  0  0  0  0  0  0  0  0
    3.7820   34.8700   26.1830 C   0  0  0  0  0  0  0  0  0  0  0  0
    4.4770   35.5950   27.1390 C   0  0  0  0  0  0  0  0  0  0  0  0
    5.8190   35.8750   26.9800 C   0  0  0  0  0  0  0  0  0  0  0  0
    2.2980   34.6370   26.3320 C   0  0  0  0  0  0  0  0  0  0  0  0
    7.5270   38.6230   23.1890 C   0  0  0  0  0  0  0  0  0  0  0  0
    5.1010   37.9150   20.3470 C   0  0  0  0  0  0  0  0  0  0  0  0
    1.2330   36.4160   24.7630 C   0  0  0  0  0  0  0  0  0  0  0  0
   10.1970   33.1180   31.3830 C   0  0  0  0  0  0  0  0  0  0  0  0
   10.7770   31.9270   31.1760 N   0  0  0  0  0  0  0  0  0  0  0  0
   10.8620   31.4470   29.8790 C   0  0  0  0  0  0  0  0  0  0  0  0
   10.3400   32.1910   28.7500 C   0  0  0  0  0  0  0  0  0  0  0  0
    9.7130   33.4420   29.0460 C   0  0  0  0  0  0  0  0  0  0  0  0
    9.6650   33.8890   30.3930 C   0  0  0  0  0  0  0  0  0  0  0  0
   10.4350   31.8090   27.3850 C   0  0  0  0  0  0  0  0  0  0  0  0
    9.9420   32.5980   26.3880 C   0  0  0  0  0  0  0  0  0  0  0  0
    9.3070   33.8050   26.6800 C   0  0  0  0  0  0  0  0  0  0  0  0
    9.1910   34.2210   27.9870 C   0  0  0  0  0  0  0  0  0  0  0  0
    8.8120   34.5690   25.6310 N   0  0  0  0  0  0  0  0  0  0  0  0
   11.4250   30.2270   29.7440 N   0  0  0  0  0  0  0  0  0  0  0  0
    6.5170   35.4260   25.8700 C   0  0  0  0  0  0  0  0  0  0  0  0
    8.5450   35.9990   23.3940 O   0  0  0  0  0  0  0  0  0  0  0  0
    7.7340   37.8500   24.4060 N   0  0  0  0  0  0  0  0  0  0  0  0
    6.3040   38.1790   22.4220 C   0  0  0  0  0  0  0  0  0  0  0  0
    6.2270   38.3290   21.0440 C   0  0  0  0  0  0  0  0  0  0  0  0
    4.0280   37.3550   21.0200 C   0  0  0  0  0  0  0  0  0  0  0  0
    4.0860   37.1970   22.3970 C   0  0  0  0  0  0  0  0  0  0  0  0
    5.2270   37.6000   23.0870 C   0  0  0  0  0  0  0  0  0  0  0  0
    2.9710   36.6810   23.1040 N   0  0  0  0  0  0  0  0  0  0  0  0
    2.4540   37.1450   24.2680 C   0  0  0  0  0  0  0  0  0  0  0  0
    2.8890   38.1230   24.8690 O   0  0  0  0  0  0  0  0  0  0  0  0
    1.4350   34.9510   25.1080 C   0  0  0  0  0  0  0  0  0  0  0  0
  4  1  1  0
 22  1  1  0
 24  1  1  0
  3  2  2  0
  5  2  1  0
 24  3  1  0
 25  4  2  0
 26  4  1  0
  6  5  2  0
  8  5  1  0
  7  6  1  0
 24  7  2  0
 35  8  1  0
 26  9  1  0
 27  9  1  0
 28 10  1  0
 29 10  2  0
 33 11  1  0
 35 11  1  0
 13 12  2  0
 17 12  1  0
 14 13  1  0
 15 14  2  0
 23 14  1  0
 16 15  1  0
 18 15  1  0
 17 16  2  0
 21 16  1  0
 19 18  2  0
 20 19  1  0
 21 20  2  0
 22 20  1  0
 28 27  2  0
 31 27  1  0
 30 29  1  0
 31 30  2  0
 32 30  1  0
 33 32  1  0
 34 33  2  0
A    1
C13
A    2
C18
A    3
C17
A    4
C15
A    5
C19
A    6
C20
A    7
C21
A    8
C22
A    9
C23
A   10
C27
A   11
C33
A   12
C1
A   13
N2
A   14
C3
A   15
C4
A   16
C5
A   17
C6
A   18
C7
A   19
C8
A   20
C9
A   21
C10
A   22
N11
A   23
N12
A   24
C14
A   25
O16
A   26
N24
A   27
C25
A   28
C26
A   29
C28
A   30
C29
A   31
C30
A   32
N31
A   33
C32
A   34
O34
A   35
C35
M  END
>  <Id>  (33) 
4ZXY_4T1_H_301

>  <ChainId>  (33) 
H

>  <AsymId>  (33) 
C

>  <SeqNum>  (33) 
301

>  <Name>  (33) 
(2R)-2-[(1-aminoisoquinolin-6-yl)amino]-4,11-diazatricyclo[14.2.2.1~6,10~]henicosa-1(18),6(21),7,9,16,19-hexaene-3,12-dione

>  <SystematicName>  (33) 
null

>  <Synonyms>  (33) 


>  <Type>  (33) 
NON-POLYMER

>  <Formula>  (33) 
C28 H27 N5 O2

>  <ObservedFormula>  (33) 
C28 N5 O2

>  <MolecularWeight>  (33) 
465.546

>  <ModifiedDate>  (33) 
2015-07-17

>  <Parent>  (33) 


>  <OneLetterCode>  (33) 


>  <SubcomponentList>  (33) 


>  <AmbiguousFlag>  (33) 
N

>  <InsertionCode>  (33) 


>  <InstanceId>  (33) 
4ZXY_4T1_H_301

>  <ChemCompId>  (33) 
4T1

>  <PdbId>  (33) 
4ZXY

>  <ResidueNumber>  (33) 
301

>  <InChI>  (33) 
InChI=1S/C28H27N5O2/c29-27-24-12-11-23(16-21(24)13-14-30-27)33-26-20-9-7-18(8-10-20)3-2-6-25(34)32-22-5-1-4-19(15-22)17-31-28(26)35/h1,4-5,7-16,26,33H,2-3,6,17H2,(H2,29,30)(H,31,35)(H,32,34)/t26-/m1/s1

>  <InChIKey>  (33) 
LXFPTSIBSQOGTO-AREMUKBSSA-N

>  <SMILES>  (33) 
c1cc2cc(c1)NC(=O)CCCc3ccc(cc3)[C@H](C(=O)NC2)Nc4ccc5c(c4)ccnc5N

>  <MissingHeavyAtoms>  (33) 
0

>  <Model>  (33) 
1

>  <AltIds>  (33) 


>  <pKI>  (33) 
6.13

>  <ChemblID>  (33) 
-

>  <standardized_canonical_smiles>  (33) 
Nc1nccc2cc(N[C@H]3C(=O)NCc4cccc(c4)NC(=O)CCCc4ccc3cc4)ccc12

$$$$
2FLB_6NH_H_1246
     RDKit          3D

 24 27  0  0  0  0  0  0  0  0999 V2000
   12.7140    8.9120   47.5160 C   0  0  0  0  0  0  0  0  0  0  0  0
   12.4670    7.5450   47.2330 C   0  0  0  0  0  0  0  0  0  0  0  0
   11.6190    6.8280   48.0770 C   0  0  0  0  0  0  0  0  0  0  0  0
   11.0660    7.5150   49.1530 C   0  0  0  0  0  0  0  0  0  0  0  0
   11.2950    8.8410   49.4250 C   0  0  0  0  0  0  0  0  0  0  0  0
   12.1360    9.5930   48.5980 C   0  0  0  0  0  0  0  0  0  0  0  0
   13.6070    9.5990   46.6820 C   0  0  0  0  0  0  0  0  0  0  0  0
   13.7670   10.9040   46.8370 N   0  0  0  0  0  0  0  0  0  0  0  0
   14.3560    8.9660   45.7470 N   0  0  0  0  0  0  0  0  0  0  0  0
   10.2780    6.9860   50.0590 N   0  0  0  0  0  0  0  0  0  0  0  0
   10.6500    9.2140   50.5380 N   0  0  0  0  0  0  0  0  0  0  0  0
   10.0590    8.0470   50.8570 C   0  0  0  0  0  0  0  0  0  0  0  0
    9.2980    7.8660   52.0400 C   0  0  0  0  0  0  0  0  0  0  0  0
    8.8100    6.6260   52.4320 C   0  0  0  0  0  0  0  0  0  0  0  0
    8.9500    5.4750   51.6810 O   0  0  0  0  0  0  0  0  0  0  0  0
    8.1900    6.8730   53.6670 C   0  0  0  0  0  0  0  0  0  0  0  0
    8.2440    8.1670   54.0100 N   0  0  0  0  0  0  0  0  0  0  0  0
    8.9580    8.8050   52.9240 N   0  0  0  0  0  0  0  0  0  0  0  0
    7.4830    5.8660   54.3640 C   0  0  0  0  0  0  0  0  0  0  0  0
    6.7720    4.8930   53.6540 C   0  0  0  0  0  0  0  0  0  0  0  0
    6.0670    3.9200   54.3560 C   0  0  0  0  0  0  0  0  0  0  0  0
    6.0730    3.9110   55.7420 C   0  0  0  0  0  0  0  0  0  0  0  0
    6.7850    4.8850   56.4470 C   0  0  0  0  0  0  0  0  0  0  0  0
    7.5050    5.8810   55.7580 C   0  0  0  0  0  0  0  0  0  0  0  0
  2  1  2  0
  6  1  1  0
  7  1  1  0
  3  2  1  0
  4  3  2  0
  5  4  1  0
 10  4  1  0
  6  5  2  0
 11  5  1  0
  8  7  1  0
  9  7  2  0
 12 10  1  0
 12 11  2  0
 13 12  1  0
 14 13  1  0
 18 13  2  0
 15 14  1  0
 16 14  2  0
 17 16  1  0
 19 16  1  0
 18 17  1  0
 20 19  2  0
 24 19  1  0
 21 20  1  0
 22 21  2  0
 23 22  1  0
 24 23  2  0
A    1
C1
A    2
C2
A    3
C3
A    4
C4
A    5
C5
A    6
C6
A    7
C7
A    8
N1
A    9
N2
A   10
N3
A   11
N4
A   12
C8
A   13
C5'
A   14
C4'
A   15
O4'
A   16
C3'
A   17
N2'
A   18
N1'
A   19
C1B
A   20
C2B
A   21
C3B
A   22
C4B
A   23
C5B
A   24
C6B
M  END
>  <Id>  (34) 
2FLB_6NH_H_1246

>  <ChainId>  (34) 
H

>  <AsymId>  (34) 
D

>  <SeqNum>  (34) 
1246

>  <Name>  (34) 
2-(4-HYDROXY-5-PHENYL-1H-PYRAZOL-3-YL)-1H-BENZOIMIDAZOLE-5-CARBOXAMIDINE

>  <SystematicName>  (34) 
2-(4-hydroxy-5-phenyl-1H-pyrazol-3-yl)-1H-benzimidazole-5-carboximidamide

>  <Synonyms>  (34) 


>  <Type>  (34) 
NON-POLYMER

>  <Formula>  (34) 
C17 H14 N6 O

>  <ObservedFormula>  (34) 
C17 N6 O

>  <MolecularWeight>  (34) 
318.333

>  <ModifiedDate>  (34) 
2011-06-04

>  <Parent>  (34) 


>  <OneLetterCode>  (34) 


>  <SubcomponentList>  (34) 


>  <AmbiguousFlag>  (34) 


>  <InsertionCode>  (34) 


>  <InstanceId>  (34) 
2FLB_6NH_H_1246

>  <ChemCompId>  (34) 
6NH

>  <PdbId>  (34) 
2FLB

>  <ResidueNumber>  (34) 
1246

>  <InChI>  (34) 
InChI=1S/C17H14N6O/c18-16(19)10-6-7-11-12(8-10)21-17(20-11)14-15(24)13(22-23-14)9-4-2-1-3-5-9/h1-8,24H,(H3,18,19)(H,20,21)(H,22,23)

>  <InChIKey>  (34) 
CKSIVONWCYACAP-UHFFFAOYSA-N

>  <SMILES>  (34) 
[H]/N=C(\c1ccc2c(c1)nc([nH]2)c3c(c([nH]n3)c4ccccc4)O)/N

>  <MissingHeavyAtoms>  (34) 
0

>  <Model>  (34) 
1

>  <AltIds>  (34) 


>  <pKI>  (34) 
5.74

>  <ChemblID>  (34) 
-

>  <standardized_canonical_smiles>  (34) 
N=C(N)c1ccc2[nH]c(-c3n[nH]c(-c4ccccc4)c3O)nc2c1

$$$$
2FLR_7NH_H_258
     RDKit          3D

 27 30  0  0  0  0  0  0  0  0999 V2000
   46.6130   -8.9030   12.4410 N   0  0  0  0  0  0  0  0  0  0  0  0
   46.4130   -7.6110   12.1280 C   0  0  0  0  0  0  0  0  0  0  0  0
   47.4030   -6.9860   11.3620 C   0  0  0  0  0  0  0  0  0  0  0  0
   48.4610   -7.7440   11.0120 C   0  0  0  0  0  0  0  0  0  0  0  0
   48.6060   -9.0280   11.3540 C   0  0  0  0  0  0  0  0  0  0  0  0
   47.6490   -9.6670   12.1060 C   0  0  0  0  0  0  0  0  0  0  0  0
   49.5160   -7.4030   10.2960 N   0  0  0  0  0  0  0  0  0  0  0  0
   49.7640   -9.4560   10.8350 C   0  0  0  0  0  0  0  0  0  0  0  0
   50.3550   -8.4160   10.1490 C   0  0  0  0  0  0  0  0  0  0  0  0
   51.5120   -8.3000    9.4140 C   0  0  0  0  0  0  0  0  0  0  0  0
   52.2930   -9.4380    9.2180 C   0  0  0  0  0  0  0  0  0  0  0  0
   53.4650   -9.3890    8.5040 C   0  0  0  0  0  0  0  0  0  0  0  0
   53.8780   -8.1880    7.9710 C   0  0  0  0  0  0  0  0  0  0  0  0
   53.1330   -7.0100    8.1370 C   0  0  0  0  0  0  0  0  0  0  0  0
   51.9530   -7.0970    8.8590 C   0  0  0  0  0  0  0  0  0  0  0  0
   51.1820   -5.9680    9.0090 O   0  0  0  0  0  0  0  0  0  0  0  0
   53.6040   -5.8310    7.5910 C   0  0  0  0  0  0  0  0  0  0  0  0
   52.7560   -4.9440    6.9210 C   0  0  0  0  0  0  0  0  0  0  0  0
   53.2370   -3.7760    6.3440 C   0  0  0  0  0  0  0  0  0  0  0  0
   54.5910   -3.4820    6.4350 C   0  0  0  0  0  0  0  0  0  0  0  0
   55.4540   -4.3460    7.0940 C   0  0  0  0  0  0  0  0  0  0  0  0
   54.9590   -5.5040    7.6670 C   0  0  0  0  0  0  0  0  0  0  0  0
   56.9380   -4.0350    7.1660 C   0  0  0  0  0  0  0  0  0  0  0  0
   57.5030   -4.3370    8.5110 N   0  0  0  0  0  0  0  0  0  0  0  0
   58.3490   -5.3150    8.6900 C   0  0  0  0  0  0  0  0  0  0  0  0
   58.7140   -6.0480    7.7960 O   0  0  0  0  0  0  0  0  0  0  0  0
   58.8190   -5.5230    9.8900 N   0  0  0  0  0  0  0  0  0  0  0  0
  2  1  2  0
  6  1  1  0
  3  2  1  0
  4  3  2  0
  5  4  1  0
  7  4  1  0
  6  5  2  0
  8  5  1  0
  9  7  1  0
  9  8  2  0
 10  9  1  0
 11 10  2  0
 15 10  1  0
 12 11  1  0
 13 12  2  0
 14 13  1  0
 15 14  2  0
 17 14  1  0
 16 15  1  0
 18 17  2  0
 22 17  1  0
 19 18  1  0
 20 19  2  0
 21 20  1  0
 22 21  2  0
 23 21  1  0
 24 23  1  0
 25 24  1  0
 26 25  2  0
 27 25  1  0
A    1
N1
A    2
C2
A    3
C3
A    4
C4
A    5
C5
A    6
C6
A    7
N3
A    8
CN4
A    9
C8
A   10
C1'
A   11
C2'
A   12
C3'
A   13
C4'
A   14
C5'
A   15
C6'
A   16
O6'
A   17
C1B
A   18
C2B
A   19
C3B
A   20
C4B
A   21
C5B
A   22
C6B
A   23
C51
A   24
N52
A   25
C53
A   26
O53
A   27
N54
M  END
>  <Id>  (35) 
2FLR_7NH_H_258

>  <ChainId>  (35) 
H

>  <AsymId>  (35) 
D

>  <SeqNum>  (35) 
258

>  <Name>  (35) 
[2'-HYDROXY-3'-(1H-PYRROLO[3,2-C]PYRIDIN-2-YL)-BIPHENYL-3-YLMETHYL]-UREA

>  <SystematicName>  (35) 
[3-[2-hydroxy-3-(1H-pyrrolo[4,5-c]pyridin-2-yl)phenyl]phenyl]methylurea

>  <Synonyms>  (35) 


>  <Type>  (35) 
NON-POLYMER

>  <Formula>  (35) 
C21 H18 N4 O2

>  <ObservedFormula>  (35) 
C21 N4 O2

>  <MolecularWeight>  (35) 
358.393

>  <ModifiedDate>  (35) 
2011-06-04

>  <Parent>  (35) 


>  <OneLetterCode>  (35) 


>  <SubcomponentList>  (35) 


>  <AmbiguousFlag>  (35) 
N

>  <InsertionCode>  (35) 


>  <InstanceId>  (35) 
2FLR_7NH_H_258

>  <ChemCompId>  (35) 
7NH

>  <PdbId>  (35) 
2FLR

>  <ResidueNumber>  (35) 
258

>  <InChI>  (35) 
InChI=1S/C21H18N4O2/c22-21(27)24-11-13-3-1-4-14(9-13)16-5-2-6-17(20(16)26)19-10-15-12-23-8-7-18(15)25-19/h1-10,12,25-26H,11H2,(H3,22,24,27)

>  <InChIKey>  (35) 
SRPOHNDQBDHONJ-UHFFFAOYSA-N

>  <SMILES>  (35) 
c1cc(cc(c1)c2cccc(c2O)c3cc4cnccc4[nH]3)CNC(=O)N

>  <MissingHeavyAtoms>  (35) 
0

>  <Model>  (35) 
1

>  <AltIds>  (35) 


>  <pKI>  (35) 
6.1

>  <ChemblID>  (35) 
-

>  <standardized_canonical_smiles>  (35) 
NC(=O)NCc1cccc(-c2cccc(-c3cc4cnccc4[nH]3)c2O)c1

$$$$
4X8T_3Z8_H_301
     RDKit          3D

 12 13  0  0  0  0  0  0  0  0999 V2000
   10.9770   31.5150   29.4090 C   0  0  0  0  0  0  0  0  0  0  0  0
    9.8170   34.1060   30.2030 C   0  0  0  0  0  0  0  0  0  0  0  0
    9.9990   33.7720   28.7790 C   0  0  0  0  0  0  0  0  0  0  0  0
   10.0340   33.1020   31.0740 N   0  0  0  0  0  0  0  0  0  0  0  0
   10.5160   32.5240   28.3850 C   0  0  0  0  0  0  0  0  0  0  0  0
    9.5190   34.6630   27.8090 C   0  0  0  0  0  0  0  0  0  0  0  0
    9.4250   35.2050   30.5820 O   0  0  0  0  0  0  0  0  0  0  0  0
   10.5570   32.2150   27.0280 C   0  0  0  0  0  0  0  0  0  0  0  0
    9.5370   34.2940   26.4790 C   0  0  0  0  0  0  0  0  0  0  0  0
   10.2620   31.7040   30.7260 C   0  0  0  0  0  0  0  0  0  0  0  0
   10.0870   33.0990   26.0730 C   0  0  0  0  0  0  0  0  0  0  0  0
    8.7010   35.2870   25.3140 Cl  0  0  0  0  0  0  0  0  0  0  0  0
  5  1  1  0
 10  1  1  0
  3  2  1  0
  4  2  1  0
  7  2  2  0
  5  3  2  0
  6  3  1  0
 10  4  1  0
  8  5  1  0
  9  6  2  0
 11  8  2  0
 11  9  1  0
 12  9  1  0
A    1
C12
A    2
C1
A    3
C2
A    4
N3
A    5
C4
A    6
C5
A    7
O6
A    8
C7
A    9
C8
A   10
C9
A   11
C10
A   12
CL
M  END
>  <Id>  (36) 
4X8T_3Z8_H_301

>  <ChainId>  (36) 
H

>  <AsymId>  (36) 
C

>  <SeqNum>  (36) 
301

>  <Name>  (36) 
7-chloro-3,4-dihydroisoquinolin-1(2H)-one

>  <SystematicName>  (36) 
7-chloranyl-3,4-dihydro-2H-isoquinolin-1-one

>  <Synonyms>  (36) 


>  <Type>  (36) 
NON-POLYMER

>  <Formula>  (36) 
C9 H8 Cl N O

>  <ObservedFormula>  (36) 
C9 Cl N O

>  <MolecularWeight>  (36) 
181.619

>  <ModifiedDate>  (36) 
2015-03-20

>  <Parent>  (36) 


>  <OneLetterCode>  (36) 


>  <SubcomponentList>  (36) 


>  <AmbiguousFlag>  (36) 
N

>  <InsertionCode>  (36) 


>  <InstanceId>  (36) 
4X8T_3Z8_H_301

>  <ChemCompId>  (36) 
3Z8

>  <PdbId>  (36) 
4X8T

>  <ResidueNumber>  (36) 
301

>  <InChI>  (36) 
InChI=1S/C9H8ClNO/c10-7-2-1-6-3-4-11-9(12)8(6)5-7/h1-2,5H,3-4H2,(H,11,12)

>  <InChIKey>  (36) 
NMZRTRAYSHQMPR-UHFFFAOYSA-N

>  <SMILES>  (36) 
c1cc2c(cc1Cl)C(=O)NCC2

>  <MissingHeavyAtoms>  (36) 
0

>  <Model>  (36) 
1

>  <AltIds>  (36) 


>  <pKI>  (36) 
2.05

>  <ChemblID>  (36) 
-

>  <standardized_canonical_smiles>  (36) 
O=C1NCCc2ccc(Cl)cc21

$$$$
4X8U_3ZB_H_301
     RDKit          3D

 13 14  0  0  0  0  0  0  0  0999 V2000
    9.5280   34.7820   29.1230 C   0  0  0  0  0  0  0  0  0  0  0  0
    9.4010   34.4110   27.7720 C   0  0  0  0  0  0  0  0  0  0  0  0
    9.1780   36.1130   29.2330 N   0  0  0  0  0  0  0  0  0  0  0  0
    9.8970   33.8630   30.1000 C   0  0  0  0  0  0  0  0  0  0  0  0
    8.9740   35.5840   27.0640 C   0  0  0  0  0  0  0  0  0  0  0  0
    9.6220   33.0850   27.4180 C   0  0  0  0  0  0  0  0  0  0  0  0
    8.8310   36.5880   27.9840 C   0  0  0  0  0  0  0  0  0  0  0  0
   10.1030   32.5360   29.7280 C   0  0  0  0  0  0  0  0  0  0  0  0
    9.9520   32.1670   28.3990 C   0  0  0  0  0  0  0  0  0  0  0  0
    8.4150   38.0030   27.8630 C   0  0  0  0  0  0  0  0  0  0  0  0
   10.1280   30.4900   27.9580 Cl  0  0  0  0  0  0  0  0  0  0  0  0
    8.2460   38.4230   26.6330 O   0  0  0  0  0  0  0  0  0  0  0  0
    8.1910   38.6930   28.8590 O   0  0  0  0  0  0  0  0  0  0  0  0
  2  1  2  0
  3  1  1  0
  4  1  1  0
  5  2  1  0
  6  2  1  0
  7  3  1  0
  8  4  2  0
  7  5  2  0
  9  6  2  0
 10  7  1  0
  9  8  1  0
 11  9  1  0
 12 10  1  0
 13 10  2  0
A    1
C1
A    2
C2
A    3
N3
A    4
C4
A    5
C5
A    6
C6
A    7
C7
A    8
C8
A    9
C9
A   10
C10
A   11
CL
A   12
O12
A   13
O13
M  END
>  <Id>  (37) 
4X8U_3ZB_H_301

>  <ChainId>  (37) 
H

>  <AsymId>  (37) 
C

>  <SeqNum>  (37) 
301

>  <Name>  (37) 
5-chloro-1H-indole-2-carboxylic acid

>  <SystematicName>  (37) 
5-chloranyl-1H-indole-2-carboxylic acid

>  <Synonyms>  (37) 


>  <Type>  (37) 
NON-POLYMER

>  <Formula>  (37) 
C9 H6 Cl N O2

>  <ObservedFormula>  (37) 
C9 Cl N O2

>  <MolecularWeight>  (37) 
195.602

>  <ModifiedDate>  (37) 
2015-03-20

>  <Parent>  (37) 


>  <OneLetterCode>  (37) 


>  <SubcomponentList>  (37) 


>  <AmbiguousFlag>  (37) 
N

>  <InsertionCode>  (37) 


>  <InstanceId>  (37) 
4X8U_3ZB_H_301

>  <ChemCompId>  (37) 
3ZB

>  <PdbId>  (37) 
4X8U

>  <ResidueNumber>  (37) 
301

>  <InChI>  (37) 
InChI=1S/C9H6ClNO2/c10-6-1-2-7-5(3-6)4-8(11-7)9(12)13/h1-4,11H,(H,12,13)

>  <InChIKey>  (37) 
FUQOTYRCMBZFOL-UHFFFAOYSA-N

>  <SMILES>  (37) 
c1cc2c(cc1Cl)cc([nH]2)C(=O)O

>  <MissingHeavyAtoms>  (37) 
0

>  <Model>  (37) 
1

>  <AltIds>  (37) 


>  <pKI>  (37) 
2.46

>  <ChemblID>  (37) 
-

>  <standardized_canonical_smiles>  (37) 
O=C(O)c1cc2cc(Cl)ccc2[nH]1

$$$$
