5Y2O_8N6_A_501
     RDKit          3D

 25 27  0  0  0  0  0  0  0  0999 V2000
  -49.1380    0.7650   83.7470 O   0  0  0  0  0  0  0  0  0  0  0  0
  -48.3940    1.0100   82.8000 C   0  0  0  0  0  0  0  0  0  0  0  0
  -47.6540    2.1450   82.7930 N   0  0  0  0  0  0  0  0  0  0  0  0
  -48.2570    0.1310   81.7020 C   0  0  0  0  0  0  0  0  0  0  0  0
  -47.0960    1.0240   80.6390 S   0  0  0  0  0  0  0  0  0  0  0  0
  -46.8960    2.2830   81.6970 C   0  0  0  0  0  0  0  0  0  0  0  0
  -46.1370    3.2250   81.4960 O   0  0  0  0  0  0  0  0  0  0  0  0
  -47.6670   -1.2090   82.1370 C   0  0  0  0  0  0  0  0  0  0  0  0
  -50.4500   -3.4220   73.7970 C   0  0  0  0  0  0  0  0  0  0  0  0
  -47.6970   -2.1360   81.0810 C   0  0  0  0  0  0  0  0  0  0  0  0
  -48.8180   -2.9430   80.8640 C   0  0  0  0  0  0  0  0  0  0  0  0
  -48.8410   -3.8730   79.8210 C   0  0  0  0  0  0  0  0  0  0  0  0
  -47.7370   -3.9930   78.9800 C   0  0  0  0  0  0  0  0  0  0  0  0
  -46.6210   -3.1920   79.2070 C   0  0  0  0  0  0  0  0  0  0  0  0
  -46.5930   -2.2760   80.2500 C   0  0  0  0  0  0  0  0  0  0  0  0
  -47.7050   -4.8810   77.9370 O   0  0  0  0  0  0  0  0  0  0  0  0
  -49.0120   -5.2050   77.4240 C   0  0  0  0  0  0  0  0  0  0  0  0
  -48.8880   -5.8940   76.0420 C   0  0  0  0  0  0  0  0  0  0  0  0
  -50.6270   -2.7190   70.8780 C   0  0  0  0  0  0  0  0  0  0  0  0
  -49.6260   -2.1850   71.9050 C   0  0  0  0  0  0  0  0  0  0  0  0
  -49.4130   -3.1240   72.9250 C   0  0  0  0  0  0  0  0  0  0  0  0
  -48.1810   -3.7580   73.1030 C   0  0  0  0  0  0  0  0  0  0  0  0
  -48.0100   -4.6860   74.1580 N   0  0  0  0  0  0  0  0  0  0  0  0
  -50.2550   -4.3450   74.8150 C   0  0  0  0  0  0  0  0  0  0  0  0
  -49.0260   -4.9660   74.9940 C   0  0  0  0  0  0  0  0  0  0  0  0
  2  1  2  0
  3  2  1  0
  4  2  1  0
  6  3  1  0
  5  4  1  0
  8  4  1  0
  6  5  1  0
  7  6  2  0
 10  8  1  0
 21  9  2  0
 24  9  1  0
 11 10  2  0
 15 10  1  0
 12 11  1  0
 13 12  2  0
 14 13  1  0
 16 13  1  0
 15 14  2  0
 17 16  1  0
 18 17  1  0
 25 18  1  0
 20 19  1  0
 21 20  1  0
 22 21  1  0
 23 22  2  0
 25 23  1  0
 25 24  2  0
A    1
O4
A    2
C4
A    3
N3
A    4
C5
A    5
S1
A    6
C2
A    7
O2
A    8
C6
A    9
C21
A   10
C7
A   11
C12
A   12
C11
A   13
C10
A   14
C9
A   15
C8
A   16
O13
A   17
C14
A   18
C15
A   19
C24
A   20
C23
A   21
C20
A   22
C19
A   23
N18
A   24
C22
A   25
C17
M  END
>  <Id>  (1) 
5Y2O_8N6_A_501

>  <ChainId>  (1) 
A

>  <AsymId>  (1) 
C

>  <SeqNum>  (1) 
501

>  <Name>  (1) 
(5S)-5-[[4-[2-(5-ethylpyridin-2-yl)ethoxy]phenyl]methyl]-1,3-thiazolidine-2,4-dione

>  <SystematicName>  (1) 
(5~{S})-5-[[4-[2-(5-ethylpyridin-2-yl)ethoxy]phenyl]methyl]-1,3-thiazolidine-2,4-dione

>  <Synonyms>  (1) 
Pioglitazone

>  <Type>  (1) 
NON-POLYMER

>  <Formula>  (1) 
C19 H20 N2 O3 S

>  <ObservedFormula>  (1) 
C19 S N2 O3

>  <MolecularWeight>  (1) 
356.439

>  <ModifiedDate>  (1) 
2017-12-15

>  <Parent>  (1) 


>  <OneLetterCode>  (1) 


>  <SubcomponentList>  (1) 


>  <AmbiguousFlag>  (1) 
N

>  <InsertionCode>  (1) 


>  <InstanceId>  (1) 
5Y2O_8N6_A_501

>  <ChemCompId>  (1) 
8N6

>  <PdbId>  (1) 
5Y2O

>  <ResidueNumber>  (1) 
501

>  <InChI>  (1) 
InChI=1S/C19H20N2O3S/c1-2-13-3-6-15(20-12-13)9-10-24-16-7-4-14(5-8-16)11-17-18(22)21-19(23)25-17/h3-8,12,17H,2,9-11H2,1H3,(H,21,22,23)/t17-/m0/s1

>  <InChIKey>  (1) 
HYAFETHFCAUJAY-KRWDZBQOSA-N

>  <SMILES>  (1) 
CCc1ccc(nc1)CCOc2ccc(cc2)C[C@H]3C(=O)NC(=O)S3

>  <MissingHeavyAtoms>  (1) 
0

>  <Model>  (1) 
1

>  <AltIds>  (1) 


>  <pKI>  (1) 
6.0

>  <ChemblID>  (1) 
CHEMBL595

>  <standardized_canonical_smiles>  (1) 
CCc1ccc(CCOc2ccc(CC3SC(=O)NC3=O)cc2)nc1

$$$$
2XKW_P1B_B_1475
     RDKit          3D

 25 27  0  0  0  0  0  0  0  0999 V2000
  -11.1950  -22.5820   11.9210 O   0  0  0  0  0  0  0  0  0  0  0  0
  -10.2950  -23.0480   11.2230 C   0  0  0  0  0  0  0  0  0  0  0  0
  -10.5410  -23.4790    9.9730 N   0  0  0  0  0  0  0  0  0  0  0  0
   -8.8320  -23.1500   11.6930 C   0  0  0  0  0  0  0  0  0  0  0  0
   -8.0460  -23.8930   10.2370 S   0  0  0  0  0  0  0  0  0  0  0  0
   -9.4800  -23.9580    9.3010 C   0  0  0  0  0  0  0  0  0  0  0  0
   -9.5200  -24.3980    8.1500 O   0  0  0  0  0  0  0  0  0  0  0  0
   -8.7090  -24.0560   12.9120 C   0  0  0  0  0  0  0  0  0  0  0  0
   -2.1000  -25.2660   21.2120 C   0  0  0  0  0  0  0  0  0  0  0  0
   -7.4110  -23.8040   13.7010 C   0  0  0  0  0  0  0  0  0  0  0  0
   -6.8320  -22.5280   13.7390 C   0  0  0  0  0  0  0  0  0  0  0  0
   -5.6590  -22.3020   14.4610 C   0  0  0  0  0  0  0  0  0  0  0  0
   -5.0580  -23.3470   15.1590 C   0  0  0  0  0  0  0  0  0  0  0  0
   -5.6310  -24.6270   15.1190 C   0  0  0  0  0  0  0  0  0  0  0  0
   -6.8070  -24.8580   14.3940 C   0  0  0  0  0  0  0  0  0  0  0  0
   -3.9160  -23.0910   15.8600 O   0  0  0  0  0  0  0  0  0  0  0  0
   -3.5490  -24.1900   16.7160 C   0  0  0  0  0  0  0  0  0  0  0  0
   -2.7560  -23.5870   17.8710 C   0  0  0  0  0  0  0  0  0  0  0  0
    0.3190  -27.3400   22.1500 C   0  0  0  0  0  0  0  0  0  0  0  0
   -1.0180  -27.3320   21.7710 C   0  0  0  0  0  0  0  0  0  0  0  0
   -1.4440  -26.4240   20.8130 C   0  0  0  0  0  0  0  0  0  0  0  0
   -1.2310  -26.6550   19.4420 C   0  0  0  0  0  0  0  0  0  0  0  0
   -1.6470  -25.7580   18.5400 N   0  0  0  0  0  0  0  0  0  0  0  0
   -2.5240  -24.3520   20.2540 C   0  0  0  0  0  0  0  0  0  0  0  0
   -2.2900  -24.6220   18.9050 C   0  0  0  0  0  0  0  0  0  0  0  0
  2  1  2  0
  3  2  1  0
  4  2  1  0
  6  3  1  0
  5  4  1  0
  8  4  1  0
  6  5  1  0
  7  6  2  0
 10  8  1  0
 21  9  2  0
 24  9  1  0
 11 10  2  0
 15 10  1  0
 12 11  1  0
 13 12  2  0
 14 13  1  0
 16 13  1  0
 15 14  2  0
 17 16  1  0
 18 17  1  0
 25 18  1  0
 20 19  1  0
 21 20  1  0
 22 21  1  0
 23 22  2  0
 25 23  1  0
 25 24  2  0
A    1
O4
A    2
C4
A    3
N3
A    4
C5
A    5
S1
A    6
C2
A    7
O2
A    8
C6
A    9
C21
A   10
C7
A   11
C12
A   12
C11
A   13
C10
A   14
C9
A   15
C8
A   16
O13
A   17
C14
A   18
C15
A   19
C24
A   20
C23
A   21
C20
A   22
C19
A   23
N18
A   24
C22
A   25
C17
M  END
>  <Id>  (2) 
2XKW_P1B_B_1475

>  <ChainId>  (2) 
B

>  <AsymId>  (2) 
E

>  <SeqNum>  (2) 
1475

>  <Name>  (2) 
(5R)-5-{4-[2-(5-ethylpyridin-2-yl)ethoxy]benzyl}-1,3-thiazolidine-2,4-dione

>  <SystematicName>  (2) 
(5R)-5-[[4-[2-(5-ethylpyridin-2-yl)ethoxy]phenyl]methyl]-1,3-thiazolidine-2,4-dione

>  <Synonyms>  (2) 
PIOGLITAZONE

>  <Type>  (2) 
non-polymer

>  <Formula>  (2) 
C19 H20 N2 O3 S

>  <ObservedFormula>  (2) 
C19 S N2 O3

>  <MolecularWeight>  (2) 
356.439

>  <ModifiedDate>  (2) 
2011-08-05

>  <Parent>  (2) 


>  <OneLetterCode>  (2) 


>  <SubcomponentList>  (2) 


>  <AmbiguousFlag>  (2) 
N

>  <InsertionCode>  (2) 


>  <InstanceId>  (2) 
2XKW_P1B_B_1475

>  <ChemCompId>  (2) 
P1B

>  <PdbId>  (2) 
2XKW

>  <ResidueNumber>  (2) 
1475

>  <InChI>  (2) 
InChI=1S/C19H20N2O3S/c1-2-13-3-6-15(20-12-13)9-10-24-16-7-4-14(5-8-16)11-17-18(22)21-19(23)25-17/h3-8,12,17H,2,9-11H2,1H3,(H,21,22,23)/t17-/m1/s1

>  <InChIKey>  (2) 
HYAFETHFCAUJAY-QGZVFWFLSA-N

>  <SMILES>  (2) 
CCc1ccc(nc1)CCOc2ccc(cc2)C[C@@H]3C(=O)NC(=O)S3

>  <MissingHeavyAtoms>  (2) 
0

>  <Model>  (2) 
1

>  <AltIds>  (2) 


>  <pKI>  (2) 
6.0

>  <ChemblID>  (2) 
CHEMBL595

>  <standardized_canonical_smiles>  (2) 
CCc1ccc(CCOc2ccc(CC3SC(=O)NC3=O)cc2)nc1

$$$$
6MCZ_ACD_B_501
     RDKit          3D

 22 21  0  0  0  0  0  0  0  0999 V2000
   33.5340  -13.8360   36.8210 C   0  0  0  0  0  0  0  0  0  0  0  0
   34.5360  -12.7150   36.5170 C   0  0  0  0  0  0  0  0  0  0  0  0
   35.2970  -12.1670   37.7200 C   0  0  0  0  0  0  0  0  0  0  0  0
   35.7210  -10.7220   37.4710 C   0  0  0  0  0  0  0  0  0  0  0  0
   36.3830  -10.0600   38.6770 C   0  0  0  0  0  0  0  0  0  0  0  0
   35.9100  -10.2050   39.9000 C   0  0  0  0  0  0  0  0  0  0  0  0
   36.6010   -9.5230   41.0870 C   0  0  0  0  0  0  0  0  0  0  0  0
   35.6160   -8.9180   42.0890 C   0  0  0  0  0  0  0  0  0  0  0  0
   35.9870   -8.2260   43.1570 C   0  0  0  0  0  0  0  0  0  0  0  0
   37.4450   -7.9450   43.5370 C   0  0  0  0  0  0  0  0  0  0  0  0
   38.2780   -9.2200   43.6760 C   0  0  0  0  0  0  0  0  0  0  0  0
   39.5700   -9.2250   43.9390 C   0  0  0  0  0  0  0  0  0  0  0  0
   40.2740  -10.5790   44.0400 C   0  0  0  0  0  0  0  0  0  0  0  0
   39.8580  -11.5600   42.9380 C   0  0  0  0  0  0  0  0  0  0  0  0
   39.2910  -12.7230   43.2200 C   0  0  0  0  0  0  0  0  0  0  0  0
   38.8910  -13.6910   42.1050 C   0  0  0  0  0  0  0  0  0  0  0  0
   37.7130  -14.6260   42.4000 C   0  0  0  0  0  0  0  0  0  0  0  0
   37.7180  -15.8660   41.4950 C   0  0  0  0  0  0  0  0  0  0  0  0
   36.7560  -17.0130   41.8190 C   0  0  0  0  0  0  0  0  0  0  0  0
   35.2740  -16.8010   41.4980 C   0  0  0  0  0  0  0  0  0  0  0  0
   33.4680  -14.3840   37.9580 O   0  0  0  0  0  0  0  0  0  0  0  0
   32.7530  -14.2250   35.9120 O   0  0  0  0  0  0  0  0  0  0  0  0
  2  1  1  0
 21  1  2  0
 22  1  1  0
  3  2  1  0
  4  3  1  0
  5  4  1  0
  6  5  2  0
  7  6  1  0
  8  7  1  0
  9  8  2  0
 10  9  1  0
 11 10  1  0
 12 11  2  0
 13 12  1  0
 14 13  1  0
 15 14  2  0
 16 15  1  0
 17 16  1  0
 18 17  1  0
 19 18  1  0
 20 19  1  0
A    1
C1
A    2
C2
A    3
C3
A    4
C4
A    5
C5
A    6
C6
A    7
C7
A    8
C8
A    9
C9
A   10
C10
A   11
C11
A   12
C12
A   13
C13
A   14
C14
A   15
C15
A   16
C16
A   17
C17
A   18
C18
A   19
C19
A   20
C20
A   21
O1
A   22
O2
M  END
>  <Id>  (3) 
6MCZ_ACD_B_501

>  <ChainId>  (3) 
B

>  <AsymId>  (3) 
D

>  <SeqNum>  (3) 
501

>  <Name>  (3) 
ARACHIDONIC ACID

>  <SystematicName>  (3) 
(5Z,8Z,11Z,14Z)-icosa-5,8,11,14-tetraenoic acid

>  <Synonyms>  (3) 


>  <Type>  (3) 
NON-POLYMER

>  <Formula>  (3) 
C20 H32 O2

>  <ObservedFormula>  (3) 
C20 O2

>  <MolecularWeight>  (3) 
304.467

>  <ModifiedDate>  (3) 
2011-06-04

>  <Parent>  (3) 


>  <OneLetterCode>  (3) 


>  <SubcomponentList>  (3) 


>  <AmbiguousFlag>  (3) 
N

>  <InsertionCode>  (3) 


>  <InstanceId>  (3) 
6MCZ_ACD_B_501

>  <ChemCompId>  (3) 
ACD

>  <PdbId>  (3) 
6MCZ

>  <ResidueNumber>  (3) 
501

>  <InChI>  (3) 
InChI=1S/C20H32O2/c1-2-3-4-5-6-7-8-9-10-11-12-13-14-15-16-17-18-19-20(21)22/h6-7,9-10,12-13,15-16H,2-5,8,11,14,17-19H2,1H3,(H,21,22)/b7-6-,10-9-,13-12-,16-15-

>  <InChIKey>  (3) 
YZXBAPSDXZZRGB-DOFZRALJSA-N

>  <SMILES>  (3) 
CCCCC\C=C/C\C=C/C\C=C/C\C=C/CCCC(=O)O

>  <MissingHeavyAtoms>  (3) 
0

>  <Model>  (3) 
1

>  <AltIds>  (3) 


>  <pKI>  (3) 
5.82

>  <ChemblID>  (3) 
CHEMBL7594

>  <standardized_canonical_smiles>  (3) 
CCCCC/C=C/C/C=C\C/C=C\C/C=C\CCCC(=O)O

$$$$
6MD2_ACD_B_502
     RDKit          3D

 22 21  0  0  0  0  0  0  0  0999 V2000
   36.3640   -8.8260   42.4650 C   0  0  0  0  0  0  0  0  0  0  0  0
   37.1330   -8.3760   43.6840 C   0  0  0  0  0  0  0  0  0  0  0  0
   38.4200   -7.6870   43.2460 C   0  0  0  0  0  0  0  0  0  0  0  0
   39.6250   -8.2650   43.9780 C   0  0  0  0  0  0  0  0  0  0  0  0
   40.0840   -9.5220   43.2780 C   0  0  0  0  0  0  0  0  0  0  0  0
   39.5480  -10.6960   43.5980 C   0  0  0  0  0  0  0  0  0  0  0  0
   40.0090  -11.9510   42.8960 C   0  0  0  0  0  0  0  0  0  0  0  0
   39.3940  -12.0130   41.5180 C   0  0  0  0  0  0  0  0  0  0  0  0
   38.5800  -13.0150   41.2000 C   0  0  0  0  0  0  0  0  0  0  0  0
   38.2740  -14.0870   42.2180 C   0  0  0  0  0  0  0  0  0  0  0  0
   37.0840  -14.8950   41.7580 C   0  0  0  0  0  0  0  0  0  0  0  0
   37.0620  -16.2110   41.9500 C   0  0  0  0  0  0  0  0  0  0  0  0
   38.2260  -16.8940   42.6260 C   0  0  0  0  0  0  0  0  0  0  0  0
   39.3040  -17.1790   41.6080 C   0  0  0  0  0  0  0  0  0  0  0  0
   40.2080  -18.1260   41.8450 C   0  0  0  0  0  0  0  0  0  0  0  0
   41.2860  -18.4120   40.8270 C   0  0  0  0  0  0  0  0  0  0  0  0
   41.8010  -17.0990   40.2500 C   0  0  0  0  0  0  0  0  0  0  0  0
   41.9500  -16.0450   41.3410 C   0  0  0  0  0  0  0  0  0  0  0  0
   41.1070  -14.8140   41.0310 C   0  0  0  0  0  0  0  0  0  0  0  0
   41.9540  -13.5600   41.0370 C   0  0  0  0  0  0  0  0  0  0  0  0
   35.4150   -9.6240   42.6190 O   0  0  0  0  0  0  0  0  0  0  0  0
   36.7060   -8.3820   41.3470 O   0  0  0  0  0  0  0  0  0  0  0  0
  2  1  1  0
 21  1  2  0
 22  1  1  0
  3  2  1  0
  4  3  1  0
  5  4  1  0
  6  5  2  0
  7  6  1  0
  8  7  1  0
  9  8  2  0
 10  9  1  0
 11 10  1  0
 12 11  2  0
 13 12  1  0
 14 13  1  0
 15 14  2  0
 16 15  1  0
 17 16  1  0
 18 17  1  0
 19 18  1  0
 20 19  1  0
A    1
C1
A    2
C2
A    3
C3
A    4
C4
A    5
C5
A    6
C6
A    7
C7
A    8
C8
A    9
C9
A   10
C10
A   11
C11
A   12
C12
A   13
C13
A   14
C14
A   15
C15
A   16
C16
A   17
C17
A   18
C18
A   19
C19
A   20
C20
A   21
O1
A   22
O2
M  END
>  <Id>  (4) 
6MD2_ACD_B_502

>  <ChainId>  (4) 
B

>  <AsymId>  (4) 
F

>  <SeqNum>  (4) 
502

>  <Name>  (4) 
ARACHIDONIC ACID

>  <SystematicName>  (4) 
(5Z,8Z,11Z,14Z)-icosa-5,8,11,14-tetraenoic acid

>  <Synonyms>  (4) 


>  <Type>  (4) 
NON-POLYMER

>  <Formula>  (4) 
C20 H32 O2

>  <ObservedFormula>  (4) 
C20 O2

>  <MolecularWeight>  (4) 
304.467

>  <ModifiedDate>  (4) 
2011-06-04

>  <Parent>  (4) 


>  <OneLetterCode>  (4) 


>  <SubcomponentList>  (4) 


>  <AmbiguousFlag>  (4) 
N

>  <InsertionCode>  (4) 


>  <InstanceId>  (4) 
6MD2_ACD_B_502

>  <ChemCompId>  (4) 
ACD

>  <PdbId>  (4) 
6MD2

>  <ResidueNumber>  (4) 
502

>  <InChI>  (4) 
InChI=1S/C20H32O2/c1-2-3-4-5-6-7-8-9-10-11-12-13-14-15-16-17-18-19-20(21)22/h6-7,9-10,12-13,15-16H,2-5,8,11,14,17-19H2,1H3,(H,21,22)/b7-6-,10-9-,13-12-,16-15-

>  <InChIKey>  (4) 
YZXBAPSDXZZRGB-DOFZRALJSA-N

>  <SMILES>  (4) 
CCCCC\C=C/C\C=C/C\C=C/C\C=C/CCCC(=O)O

>  <MissingHeavyAtoms>  (4) 
0

>  <Model>  (4) 
1

>  <AltIds>  (4) 


>  <pKI>  (4) 
5.82

>  <ChemblID>  (4) 
CHEMBL7594

>  <standardized_canonical_smiles>  (4) 
CCCCC/C=C/C/C=C\C/C=C\C/C=C\CCCC(=O)O

$$$$
1NYX_DRF_A_101
     RDKit          3D

 31 34  0  0  0  0  0  0  0  0999 V2000
   18.1290   63.1530   21.2310 O   0  0  0  0  0  0  0  0  0  0  0  0
   18.9010   63.0530   20.2510 C   0  0  0  0  0  0  0  0  0  0  0  0
   19.9750   62.7220   20.8990 O   0  0  0  0  0  0  0  0  0  0  0  0
   18.7300   63.2370   18.9670 C   0  0  0  0  0  0  0  0  0  0  0  0
   20.0370   63.7800   18.3210 O   0  0  0  0  0  0  0  0  0  0  0  0
   19.8480   65.0350   17.7230 C   0  0  0  0  0  0  0  0  0  0  0  0
   21.1320   65.5140   17.1070 C   0  0  0  0  0  0  0  0  0  0  0  0
   18.2960   62.1510   18.1620 C   0  0  0  0  0  0  0  0  0  0  0  0
   17.8290   61.8270   16.8800 C   0  0  0  0  0  0  0  0  0  0  0  0
   18.8240   61.5670   15.9080 C   0  0  0  0  0  0  0  0  0  0  0  0
   18.4500   61.2540   14.5860 C   0  0  0  0  0  0  0  0  0  0  0  0
   17.0820   61.2000   14.2370 C   0  0  0  0  0  0  0  0  0  0  0  0
   16.7120   60.9010   12.9320 O   0  0  0  0  0  0  0  0  0  0  0  0
   16.2430   62.0960   12.3240 C   0  0  0  0  0  0  0  0  0  0  0  0
   16.0920   61.9160   10.8160 C   0  0  0  0  0  0  0  0  0  0  0  0
   15.8650   63.2260   10.1840 N   0  0  0  0  0  0  0  0  0  0  0  0
   14.5870   63.7110    9.9910 C   0  0  0  0  0  0  0  0  0  0  0  0
   14.4060   65.1380    9.8510 C   0  0  0  0  0  0  0  0  0  0  0  0
   15.4990   65.9450    9.9100 O   0  0  0  0  0  0  0  0  0  0  0  0
   16.7290   65.4170    9.6440 C   0  0  0  0  0  0  0  0  0  0  0  0
   16.9260   63.9950    9.7850 C   0  0  0  0  0  0  0  0  0  0  0  0
   18.2120   63.4480    9.5100 C   0  0  0  0  0  0  0  0  0  0  0  0
   19.2720   64.2820    9.1050 C   0  0  0  0  0  0  0  0  0  0  0  0
   19.0680   65.6740    8.9700 C   0  0  0  0  0  0  0  0  0  0  0  0
   17.8020   66.2370    9.2380 C   0  0  0  0  0  0  0  0  0  0  0  0
   13.1140   65.6760    9.6600 C   0  0  0  0  0  0  0  0  0  0  0  0
   11.9920   64.8180    9.6070 C   0  0  0  0  0  0  0  0  0  0  0  0
   12.1550   63.4170    9.7410 C   0  0  0  0  0  0  0  0  0  0  0  0
   13.4400   62.8660    9.9320 C   0  0  0  0  0  0  0  0  0  0  0  0
   16.0900   61.4570   15.2210 C   0  0  0  0  0  0  0  0  0  0  0  0
   16.4690   61.7680   16.5330 C   0  0  0  0  0  0  0  0  0  0  0  0
  2  1  1  0
  3  2  2  0
  4  2  1  0
  5  4  1  0
  8  4  1  0
  6  5  1  0
  7  6  1  0
  9  8  1  0
 10  9  2  0
 31  9  1  0
 11 10  1  0
 12 11  2  0
 13 12  1  0
 30 12  1  0
 14 13  1  0
 15 14  1  0
 16 15  1  0
 17 16  1  0
 21 16  1  0
 18 17  2  0
 29 17  1  0
 19 18  1  0
 26 18  1  0
 20 19  1  0
 21 20  2  0
 25 20  1  0
 22 21  1  0
 23 22  2  0
 24 23  1  0
 25 24  2  0
 27 26  2  0
 28 27  1  0
 29 28  2  0
 31 30  2  0
A    1
O45
A    2
C44
A    3
O55
A    4
C41
A    5
O46
A    6
C48
A    7
C49
A    8
C40
A    9
C33
A   10
C34
A   11
C35
A   12
C30
A   13
O27
A   14
C24
A   15
C23
A   16
N22
A   17
C11
A   18
C16
A   19
O21
A   20
C4
A   21
C3
A   22
C2
A   23
C1
A   24
C6
A   25
C5
A   26
C15
A   27
C14
A   28
C13
A   29
C12
A   30
C31
A   31
C32
M  END
>  <Id>  (5) 
1NYX_DRF_A_101

>  <ChainId>  (5) 
A

>  <AsymId>  (5) 
C

>  <SeqNum>  (5) 
101

>  <Name>  (5) 
(2S)-2-ETHOXY-3-{4-[2-(10H-PHENOXAZIN-10-YL)ETHOXY]PHENYL}PROPANOIC ACID

>  <SystematicName>  (5) 
(2S)-2-ethoxy-3-[4-(2-phenoxazin-10-ylethoxy)phenyl]propanoic acid

>  <Synonyms>  (5) 
RAGAGLITAZAR

>  <Type>  (5) 
NON-POLYMER

>  <Formula>  (5) 
C25 H25 N O5

>  <ObservedFormula>  (5) 
C25 N O5

>  <MolecularWeight>  (5) 
419.47

>  <ModifiedDate>  (5) 
2011-06-04

>  <Parent>  (5) 


>  <OneLetterCode>  (5) 


>  <SubcomponentList>  (5) 


>  <AmbiguousFlag>  (5) 
N

>  <InsertionCode>  (5) 


>  <InstanceId>  (5) 
1NYX_DRF_A_101

>  <ChemCompId>  (5) 
DRF

>  <PdbId>  (5) 
1NYX

>  <ResidueNumber>  (5) 
101

>  <InChI>  (5) 
InChI=1S/C25H25NO5/c1-2-29-24(25(27)28)17-18-11-13-19(14-12-18)30-16-15-26-20-7-3-5-9-22(20)31-23-10-6-4-8-21(23)26/h3-14,24H,2,15-17H2,1H3,(H,27,28)/t24-/m0/s1

>  <InChIKey>  (5) 
WMUIIGVAWPWQAW-DEOSSOPVSA-N

>  <SMILES>  (5) 
CCO[C@@H](Cc1ccc(cc1)OCCN2c3ccccc3Oc4c2cccc4)C(=O)O

>  <MissingHeavyAtoms>  (5) 
0

>  <Model>  (5) 
1

>  <AltIds>  (5) 


>  <pKI>  (5) 
7.05

>  <ChemblID>  (5) 
CHEMBL24038

>  <standardized_canonical_smiles>  (5) 
CCO[C@@H](Cc1ccc(OCCN2c3ccccc3Oc3ccccc32)cc1)C(=O)O

$$$$
1I7I_AZ2_B_478
     RDKit          3D

 28 29  0  0  0  0  0  0  0  0999 V2000
   36.5610   -7.3380   35.6890 C   0  0  0  0  0  0  0  0  0  0  0  0
   36.8760   -6.7960   34.3130 C   0  0  0  0  0  0  0  0  0  0  0  0
   38.3620   -6.4180   34.1340 C   0  0  0  0  0  0  0  0  0  0  0  0
   38.6300   -5.3640   35.0460 O   0  0  0  0  0  0  0  0  0  0  0  0
   39.9540   -5.3260   35.5170 C   0  0  0  0  0  0  0  0  0  0  0  0
   40.0490   -4.1670   36.4900 C   0  0  0  0  0  0  0  0  0  0  0  0
   38.6330   -6.0510   32.6520 C   0  0  0  0  0  0  0  0  0  0  0  0
   38.7770   -7.1370   31.8600 O   0  0  0  0  0  0  0  0  0  0  0  0
   38.7430   -4.9330   32.1820 O   0  0  0  0  0  0  0  0  0  0  0  0
   36.0050   -6.4920   36.7060 C   0  0  0  0  0  0  0  0  0  0  0  0
   35.7280   -7.0210   38.0060 C   0  0  0  0  0  0  0  0  0  0  0  0
   36.0060   -8.3920   38.2910 C   0  0  0  0  0  0  0  0  0  0  0  0
   36.5530   -9.2170   37.2750 C   0  0  0  0  0  0  0  0  0  0  0  0
   36.8260   -8.6960   35.9970 C   0  0  0  0  0  0  0  0  0  0  0  0
   35.7200   -8.8530   39.5650 O   0  0  0  0  0  0  0  0  0  0  0  0
   35.2420   -8.0110   40.6360 C   0  0  0  0  0  0  0  0  0  0  0  0
   35.4210   -8.8300   41.9300 C   0  0  0  0  0  0  0  0  0  0  0  0
   36.8650   -8.8750   42.3400 C   0  0  0  0  0  0  0  0  0  0  0  0
   37.3730   -7.9240   43.2710 C   0  0  0  0  0  0  0  0  0  0  0  0
   38.7360   -7.9490   43.6560 C   0  0  0  0  0  0  0  0  0  0  0  0
   39.6130   -8.9160   43.1210 C   0  0  0  0  0  0  0  0  0  0  0  0
   39.1280   -9.8810   42.1880 C   0  0  0  0  0  0  0  0  0  0  0  0
   37.7570   -9.8520   41.8030 C   0  0  0  0  0  0  0  0  0  0  0  0
   40.8980   -8.8270   43.5790 O   0  0  0  0  0  0  0  0  0  0  0  0
   41.3920   -9.6200   44.9100 S   0  0  0  0  0  0  0  0  0  0  0  0
   42.9550   -8.8170   45.0690 C   0  0  0  0  0  0  0  0  0  0  0  0
   40.5620   -9.2410   46.0290 O   0  0  0  0  0  0  0  0  0  0  0  0
   41.6310  -11.0150   44.5900 O   0  0  0  0  0  0  0  0  0  0  0  0
  2  1  1  0
 10  1  2  0
 14  1  1  0
  3  2  1  0
  4  3  1  0
  7  3  1  0
  5  4  1  0
  6  5  1  0
  8  7  1  0
  9  7  2  0
 11 10  1  0
 12 11  2  0
 13 12  1  0
 15 12  1  0
 14 13  2  0
 16 15  1  0
 17 16  1  0
 18 17  1  0
 19 18  2  0
 23 18  1  0
 20 19  1  0
 21 20  2  0
 22 21  1  0
 24 21  1  0
 23 22  2  0
 25 24  1  0
 26 25  1  0
 27 25  2  0
 28 25  2  0
A    1
C1
A    2
C2
A    3
C5
A    4
O7
A    5
C8
A    6
C11
A    7
C15
A    8
O16
A    9
O18
A   10
C19
A   11
C21
A   12
C23
A   13
C24
A   14
C26
A   15
O28
A   16
C29
A   17
C32
A   18
C35
A   19
C36
A   20
C38
A   21
C40
A   22
C41
A   23
C43
A   24
O45
A   25
S46
A   26
C47
A   27
O51
A   28
O52
M  END
>  <Id>  (6) 
1I7I_AZ2_B_478

>  <ChainId>  (6) 
B

>  <AsymId>  (6) 
D

>  <SeqNum>  (6) 
478

>  <Name>  (6) 
(2S)-2-ETHOXY-3-[4-(2-{4-[(METHYLSULFONYL)OXY]PHENYL}ETHOXY)PHENYL]PROPANOIC ACID

>  <SystematicName>  (6) 
(2S)-2-ethoxy-3-[4-[2-(4-methylsulfonyloxyphenyl)ethoxy]phenyl]propanoic acid

>  <Synonyms>  (6) 
AZ 242

>  <Type>  (6) 
NON-POLYMER

>  <Formula>  (6) 
C20 H24 O7 S

>  <ObservedFormula>  (6) 
C20 S O7

>  <MolecularWeight>  (6) 
408.465

>  <ModifiedDate>  (6) 
2011-06-04

>  <Parent>  (6) 


>  <OneLetterCode>  (6) 


>  <SubcomponentList>  (6) 


>  <AmbiguousFlag>  (6) 
N

>  <InsertionCode>  (6) 


>  <InstanceId>  (6) 
1I7I_AZ2_B_478

>  <ChemCompId>  (6) 
AZ2

>  <PdbId>  (6) 
1I7I

>  <ResidueNumber>  (6) 
478

>  <InChI>  (6) 
InChI=1S/C20H24O7S/c1-3-25-19(20(21)22)14-16-6-8-17(9-7-16)26-13-12-15-4-10-18(11-5-15)27-28(2,23)24/h4-11,19H,3,12-14H2,1-2H3,(H,21,22)/t19-/m0/s1

>  <InChIKey>  (6) 
CXGTZJYQWSUFET-IBGZPJMESA-N

>  <SMILES>  (6) 
CCO[C@@H](Cc1ccc(cc1)OCCc2ccc(cc2)OS(=O)(=O)C)C(=O)O

>  <MissingHeavyAtoms>  (6) 
0

>  <Model>  (6) 
1

>  <AltIds>  (6) 


>  <pKI>  (6) 
7.74

>  <ChemblID>  (6) 
CHEMBL282686

>  <standardized_canonical_smiles>  (6) 
CCO[C@@H](Cc1ccc(OCCc2ccc(OS(C)(=O)=O)cc2)cc1)C(=O)O

$$$$
1FM9_570_D_200
     RDKit          3D

 41 45  0  0  0  0  0  0  0  0999 V2000
   14.6300   -6.6230   12.2970 N   0  0  0  0  0  0  0  0  0  0  0  0
   15.1750   -5.2870   12.7430 C   0  0  0  0  0  0  0  0  0  0  0  0
   14.0590   -4.2800   13.1630 C   0  0  0  0  0  0  0  0  0  0  0  0
   13.0210   -3.9940   12.0720 C   0  0  0  0  0  0  0  0  0  0  0  0
   11.7640   -4.6810   12.1280 C   0  0  0  0  0  0  0  0  0  0  0  0
   13.2850   -3.0650   11.0120 C   0  0  0  0  0  0  0  0  0  0  0  0
   10.7800   -4.4500   11.1480 C   0  0  0  0  0  0  0  0  0  0  0  0
   12.3040   -2.8260   10.0230 C   0  0  0  0  0  0  0  0  0  0  0  0
   11.0160   -3.5280   10.0790 C   0  0  0  0  0  0  0  0  0  0  0  0
    9.9370   -3.3850    9.1550 O   0  0  0  0  0  0  0  0  0  0  0  0
   15.2240   -7.7670   11.6100 C   0  0  0  0  0  0  0  0  0  0  0  0
   14.3950   -8.8860   11.1480 C   0  0  0  0  0  0  0  0  0  0  0  0
   15.0700   -9.9720   10.4770 C   0  0  0  0  0  0  0  0  0  0  0  0
   16.4700   -9.9630   10.2740 C   0  0  0  0  0  0  0  0  0  0  0  0
   17.2490   -8.8820   10.7250 C   0  0  0  0  0  0  0  0  0  0  0  0
   16.6460   -7.8050   11.3780 C   0  0  0  0  0  0  0  0  0  0  0  0
   11.8910  -10.1700   10.9450 C   0  0  0  0  0  0  0  0  0  0  0  0
   10.5890   -9.8870   10.3830 C   0  0  0  0  0  0  0  0  0  0  0  0
    9.7040  -10.9480   10.0350 C   0  0  0  0  0  0  0  0  0  0  0  0
   10.1070  -12.3000   10.2430 C   0  0  0  0  0  0  0  0  0  0  0  0
   11.3870  -12.5880   10.7970 C   0  0  0  0  0  0  0  0  0  0  0  0
   12.2690  -11.5350   11.1440 C   0  0  0  0  0  0  0  0  0  0  0  0
   12.8220   -9.0230   11.3070 C   0  0  0  0  0  0  0  0  0  0  0  0
   12.2120   -8.0260   11.7450 O   0  0  0  0  0  0  0  0  0  0  0  0
    8.6790   -6.3110    5.5150 O   0  0  0  0  0  0  0  0  0  0  0  0
    9.4630   -5.6750    4.5590 C   0  0  0  0  0  0  0  0  0  0  0  0
    9.6210   -4.3510    5.0320 N   0  0  0  0  0  0  0  0  0  0  0  0
    8.9300   -4.2570    6.2210 C   0  0  0  0  0  0  0  0  0  0  0  0
    8.3000   -5.5050    6.5670 C   0  0  0  0  0  0  0  0  0  0  0  0
    7.4350   -5.8570    7.7840 C   0  0  0  0  0  0  0  0  0  0  0  0
    9.9910   -6.1960    3.3780 C   0  0  0  0  0  0  0  0  0  0  0  0
   10.7850   -5.4040    2.4690 C   0  0  0  0  0  0  0  0  0  0  0  0
   11.2940   -5.9840    1.2780 C   0  0  0  0  0  0  0  0  0  0  0  0
   11.0230   -7.3440    0.9760 C   0  0  0  0  0  0  0  0  0  0  0  0
   10.2440   -8.1370    1.8620 C   0  0  0  0  0  0  0  0  0  0  0  0
    9.7290   -7.5690    3.0540 C   0  0  0  0  0  0  0  0  0  0  0  0
   10.1330   -2.6860    7.9020 C   0  0  0  0  0  0  0  0  0  0  0  0
    8.8860   -2.9130    7.0260 C   0  0  0  0  0  0  0  0  0  0  0  0
   17.2590   -4.8030   13.7310 O   0  0  0  0  0  0  0  0  0  0  0  0
   15.9520   -6.2630   14.7920 O   0  0  0  0  0  0  0  0  0  0  0  0
   16.1870   -5.4460   13.8430 C   0  0  0  0  0  0  0  0  0  0  0  0
  2  1  1  0
 11  1  1  0
  3  2  1  0
 41  2  1  0
  4  3  1  0
  5  4  2  0
  6  4  1  0
  7  5  1  0
  8  6  2  0
  9  7  2  0
  9  8  1  0
 10  9  1  0
 37 10  1  0
 12 11  1  0
 16 11  2  0
 13 12  2  0
 23 12  1  0
 14 13  1  0
 15 14  2  0
 16 15  1  0
 18 17  2  0
 22 17  1  0
 23 17  1  0
 19 18  1  0
 20 19  2  0
 21 20  1  0
 22 21  2  0
 24 23  2  0
 26 25  1  0
 29 25  1  0
 27 26  2  0
 31 26  1  0
 28 27  1  0
 29 28  2  0
 38 28  1  0
 30 29  1  0
 32 31  2  0
 36 31  1  0
 33 32  1  0
 34 33  2  0
 35 34  1  0
 36 35  2  0
 38 37  1  0
 41 39  2  0
 41 40  1  0
A    1
N
A    2
CA
A    3
CB
A    4
CG
A    5
CD1
A    6
CD2
A    7
CE1
A    8
CE2
A    9
CZ
A   10
OH
A   11
C1A
A   12
C1F
A   13
C1E
A   14
C1D
A   15
C1C
A   16
C1B
A   17
C1H
A   18
C1I
A   19
C1J
A   20
C1K
A   21
C1L
A   22
C1M
A   23
C1G
A   24
O1G
A   25
O3F
A   26
C3G
A   27
N3H
A   28
C3C
A   29
C3D
A   30
C3E
A   31
C3I
A   32
C3N
A   33
C3M
A   34
C3L
A   35
C3K
A   36
C3J
A   37
C3A
A   38
C3B
A   39
O2
A   40
O1
A   41
C
M  END
>  <Id>  (7) 
1FM9_570_D_200

>  <ChainId>  (7) 
D

>  <AsymId>  (7) 
F

>  <SeqNum>  (7) 
200

>  <Name>  (7) 
2-(2-BENZOYL-PHENYLAMINO)-3-{4-[2-(5-METHYL-2-PHENYL-OXAZOL-4-YL)-ETHOXY]-PHENYL}-PROPIONIC ACID

>  <SystematicName>  (7) 
(2S)-3-[4-[2-(5-methyl-2-phenyl-1,3-oxazol-4-yl)ethoxy]phenyl]-2-[[2-(phenylcarbonyl)phenyl]amino]propanoic acid

>  <Synonyms>  (7) 
GI262570

>  <Type>  (7) 
NON-POLYMER

>  <Formula>  (7) 
C34 H30 N2 O5

>  <ObservedFormula>  (7) 
C34 N2 O5

>  <MolecularWeight>  (7) 
546.612

>  <ModifiedDate>  (7) 
2011-06-04

>  <Parent>  (7) 


>  <OneLetterCode>  (7) 


>  <SubcomponentList>  (7) 


>  <AmbiguousFlag>  (7) 
N

>  <InsertionCode>  (7) 


>  <InstanceId>  (7) 
1FM9_570_D_200

>  <ChemCompId>  (7) 
570

>  <PdbId>  (7) 
1FM9

>  <ResidueNumber>  (7) 
200

>  <InChI>  (7) 
InChI=1S/C34H30N2O5/c1-23-29(36-33(41-23)26-12-6-3-7-13-26)20-21-40-27-18-16-24(17-19-27)22-31(34(38)39)35-30-15-9-8-14-28(30)32(37)25-10-4-2-5-11-25/h2-19,31,35H,20-22H2,1H3,(H,38,39)/t31-/m0/s1

>  <InChIKey>  (7) 
ZZCHHVUQYRMYLW-HKBQPEDESA-N

>  <SMILES>  (7) 
Cc1c(nc(o1)c2ccccc2)CCOc3ccc(cc3)C[C@@H](C(=O)O)Nc4ccccc4C(=O)c5ccccc5

>  <MissingHeavyAtoms>  (7) 
0

>  <Model>  (7) 
1

>  <AltIds>  (7) 


>  <pKI>  (7) 
8.95

>  <ChemblID>  (7) 
CHEMBL107367

>  <standardized_canonical_smiles>  (7) 
Cc1oc(-c2ccccc2)nc1CCOc1ccc(C[C@H](Nc2ccccc2C(=O)c2ccccc2)C(=O)O)cc1

$$$$
1RDT_570_D_478
     RDKit          3D

 41 45  0  0  0  0  0  0  0  0999 V2000
    8.5820   34.1780   12.7970 N   0  0  0  0  0  0  0  0  0  0  0  0
    8.0210   32.8370   12.9670 C   0  0  0  0  0  0  0  0  0  0  0  0
    9.0970   31.8220   13.3500 C   0  0  0  0  0  0  0  0  0  0  0  0
   10.1120   31.3740   12.3220 C   0  0  0  0  0  0  0  0  0  0  0  0
   11.3430   31.9150   12.3290 C   0  0  0  0  0  0  0  0  0  0  0  0
    9.8190   30.4410   11.3990 C   0  0  0  0  0  0  0  0  0  0  0  0
   12.2650   31.5310   11.4290 C   0  0  0  0  0  0  0  0  0  0  0  0
   10.7430   30.0590   10.5020 C   0  0  0  0  0  0  0  0  0  0  0  0
   11.9760   30.5990   10.5040 C   0  0  0  0  0  0  0  0  0  0  0  0
   12.9620   30.2440    9.6150 O   0  0  0  0  0  0  0  0  0  0  0  0
    8.0470   35.2280   11.9950 C   0  0  0  0  0  0  0  0  0  0  0  0
    8.8440   36.1710   11.4510 C   0  0  0  0  0  0  0  0  0  0  0  0
    8.2740   37.1340   10.7050 C   0  0  0  0  0  0  0  0  0  0  0  0
    6.9500   37.1940   10.4820 C   0  0  0  0  0  0  0  0  0  0  0  0
    6.1580   36.2550   11.0250 C   0  0  0  0  0  0  0  0  0  0  0  0
    6.7220   35.2900   11.7700 C   0  0  0  0  0  0  0  0  0  0  0  0
   11.2710   37.3710   11.2820 C   0  0  0  0  0  0  0  0  0  0  0  0
   12.3810   37.1520   10.5530 C   0  0  0  0  0  0  0  0  0  0  0  0
   13.2020   38.1620   10.2210 C   0  0  0  0  0  0  0  0  0  0  0  0
   12.9160   39.4140   10.6200 C   0  0  0  0  0  0  0  0  0  0  0  0
   11.8110   39.6460   11.3480 C   0  0  0  0  0  0  0  0  0  0  0  0
   10.9970   38.6270   11.6750 C   0  0  0  0  0  0  0  0  0  0  0  0
   10.3880   36.2210   11.6290 C   0  0  0  0  0  0  0  0  0  0  0  0
   10.9630   35.2380   12.0930 O   0  0  0  0  0  0  0  0  0  0  0  0
   14.4970   33.7800    5.7130 O   0  0  0  0  0  0  0  0  0  0  0  0
   13.6620   33.1120    4.8580 C   0  0  0  0  0  0  0  0  0  0  0  0
   13.3960   31.8580    5.3740 N   0  0  0  0  0  0  0  0  0  0  0  0
   14.0840   31.7690    6.5670 C   0  0  0  0  0  0  0  0  0  0  0  0
   14.7670   32.9610    6.7740 C   0  0  0  0  0  0  0  0  0  0  0  0
   15.6600   33.3740    7.9210 C   0  0  0  0  0  0  0  0  0  0  0  0
   13.1980   33.6230    3.7120 C   0  0  0  0  0  0  0  0  0  0  0  0
   12.3790   32.9430    2.8900 C   0  0  0  0  0  0  0  0  0  0  0  0
   11.9250   33.4770    1.7460 C   0  0  0  0  0  0  0  0  0  0  0  0
   12.2910   34.7230    1.4030 C   0  0  0  0  0  0  0  0  0  0  0  0
   13.1080   35.4210    2.2080 C   0  0  0  0  0  0  0  0  0  0  0  0
   13.5510   34.8660    3.3480 C   0  0  0  0  0  0  0  0  0  0  0  0
   12.7320   30.4170    8.2180 C   0  0  0  0  0  0  0  0  0  0  0  0
   14.0410   30.5390    7.4430 C   0  0  0  0  0  0  0  0  0  0  0  0
    5.8790   32.1810   13.7470 O   0  0  0  0  0  0  0  0  0  0  0  0
    7.0250   33.4250   15.0590 O   0  0  0  0  0  0  0  0  0  0  0  0
    6.9030   32.8150   13.9980 C   0  0  0  0  0  0  0  0  0  0  0  0
  2  1  1  0
 11  1  1  0
  3  2  1  0
 41  2  1  0
  4  3  1  0
  5  4  2  0
  6  4  1  0
  7  5  1  0
  8  6  2  0
  9  7  2  0
  9  8  1  0
 10  9  1  0
 37 10  1  0
 12 11  1  0
 16 11  2  0
 13 12  2  0
 23 12  1  0
 14 13  1  0
 15 14  2  0
 16 15  1  0
 18 17  2  0
 22 17  1  0
 23 17  1  0
 19 18  1  0
 20 19  2  0
 21 20  1  0
 22 21  2  0
 24 23  2  0
 26 25  1  0
 29 25  1  0
 27 26  2  0
 31 26  1  0
 28 27  1  0
 29 28  2  0
 38 28  1  0
 30 29  1  0
 32 31  2  0
 36 31  1  0
 33 32  1  0
 34 33  2  0
 35 34  1  0
 36 35  2  0
 38 37  1  0
 41 39  2  0
 41 40  1  0
A    1
N
A    2
CA
A    3
CB
A    4
CG
A    5
CD1
A    6
CD2
A    7
CE1
A    8
CE2
A    9
CZ
A   10
OH
A   11
C1A
A   12
C1F
A   13
C1E
A   14
C1D
A   15
C1C
A   16
C1B
A   17
C1H
A   18
C1I
A   19
C1J
A   20
C1K
A   21
C1L
A   22
C1M
A   23
C1G
A   24
O1G
A   25
O3F
A   26
C3G
A   27
N3H
A   28
C3C
A   29
C3D
A   30
C3E
A   31
C3I
A   32
C3N
A   33
C3M
A   34
C3L
A   35
C3K
A   36
C3J
A   37
C3A
A   38
C3B
A   39
O2
A   40
O1
A   41
C
M  END
>  <Id>  (8) 
1RDT_570_D_478

>  <ChainId>  (8) 
D

>  <AsymId>  (8) 
F

>  <SeqNum>  (8) 
478

>  <Name>  (8) 
2-(2-BENZOYL-PHENYLAMINO)-3-{4-[2-(5-METHYL-2-PHENYL-OXAZOL-4-YL)-ETHOXY]-PHENYL}-PROPIONIC ACID

>  <SystematicName>  (8) 
(2S)-3-[4-[2-(5-methyl-2-phenyl-1,3-oxazol-4-yl)ethoxy]phenyl]-2-[[2-(phenylcarbonyl)phenyl]amino]propanoic acid

>  <Synonyms>  (8) 
GI262570

>  <Type>  (8) 
NON-POLYMER

>  <Formula>  (8) 
C34 H30 N2 O5

>  <ObservedFormula>  (8) 
C34 N2 O5

>  <MolecularWeight>  (8) 
546.612

>  <ModifiedDate>  (8) 
2011-06-04

>  <Parent>  (8) 


>  <OneLetterCode>  (8) 


>  <SubcomponentList>  (8) 


>  <AmbiguousFlag>  (8) 
N

>  <InsertionCode>  (8) 


>  <InstanceId>  (8) 
1RDT_570_D_478

>  <ChemCompId>  (8) 
570

>  <PdbId>  (8) 
1RDT

>  <ResidueNumber>  (8) 
478

>  <InChI>  (8) 
InChI=1S/C34H30N2O5/c1-23-29(36-33(41-23)26-12-6-3-7-13-26)20-21-40-27-18-16-24(17-19-27)22-31(34(38)39)35-30-15-9-8-14-28(30)32(37)25-10-4-2-5-11-25/h2-19,31,35H,20-22H2,1H3,(H,38,39)/t31-/m0/s1

>  <InChIKey>  (8) 
ZZCHHVUQYRMYLW-HKBQPEDESA-N

>  <SMILES>  (8) 
Cc1c(nc(o1)c2ccccc2)CCOc3ccc(cc3)C[C@@H](C(=O)O)Nc4ccccc4C(=O)c5ccccc5

>  <MissingHeavyAtoms>  (8) 
0

>  <Model>  (8) 
1

>  <AltIds>  (8) 


>  <pKI>  (8) 
8.95

>  <ChemblID>  (8) 
CHEMBL107367

>  <standardized_canonical_smiles>  (8) 
Cc1oc(-c2ccccc2)nc1CCOc1ccc(C[C@H](Nc2ccccc2C(=O)c2ccccc2)C(=O)O)cc1

$$$$
1K74_544_D_478
     RDKit          3D

 38 41  0  0  0  0  0  0  0  0999 V2000
   13.8080   18.8420   13.1020 N   0  0  0  0  0  0  0  0  0  0  0  0
   14.5880   20.0790   13.5200 C   0  0  0  0  0  0  0  0  0  0  0  0
   13.6120   21.2520   13.9040 C   0  0  0  0  0  0  0  0  0  0  0  0
   12.5520   21.5230   12.8220 C   0  0  0  0  0  0  0  0  0  0  0  0
   11.2030   21.0490   13.0120 C   0  0  0  0  0  0  0  0  0  0  0  0
   12.8940   22.2380   11.6280 C   0  0  0  0  0  0  0  0  0  0  0  0
   10.2210   21.2890   12.0120 C   0  0  0  0  0  0  0  0  0  0  0  0
   11.9220   22.4690   10.6530 C   0  0  0  0  0  0  0  0  0  0  0  0
   10.5530   21.9960   10.8260 C   0  0  0  0  0  0  0  0  0  0  0  0
    9.4930   22.1760    9.8960 O   0  0  0  0  0  0  0  0  0  0  0  0
   14.2340   17.5730   12.5590 C   0  0  0  0  0  0  0  0  0  0  0  0
   13.2430   16.6480   12.2570 C   0  0  0  0  0  0  0  0  0  0  0  0
   15.6850   17.1920   12.2920 C   0  0  0  0  0  0  0  0  0  0  0  0
   10.7580   15.7490   12.0520 C   0  0  0  0  0  0  0  0  0  0  0  0
    9.4570   16.1300   11.5410 C   0  0  0  0  0  0  0  0  0  0  0  0
    8.5140   15.1500   11.1500 C   0  0  0  0  0  0  0  0  0  0  0  0
    8.8460   13.7720   11.2590 C   0  0  0  0  0  0  0  0  0  0  0  0
   10.1290   13.3750   11.7540 C   0  0  0  0  0  0  0  0  0  0  0  0
   11.0770   14.3550   12.1470 C   0  0  0  0  0  0  0  0  0  0  0  0
   11.6840   16.7840   12.4410 C   0  0  0  0  0  0  0  0  0  0  0  0
   11.2330   17.8270   12.9510 O   0  0  0  0  0  0  0  0  0  0  0  0
    8.4500   19.1640    6.5920 O   0  0  0  0  0  0  0  0  0  0  0  0
    9.2060   19.7800    5.6050 C   0  0  0  0  0  0  0  0  0  0  0  0
    9.3400   21.1640    5.8780 N   0  0  0  0  0  0  0  0  0  0  0  0
    8.6550   21.3640    7.0750 C   0  0  0  0  0  0  0  0  0  0  0  0
    8.1090   20.1160    7.5100 C   0  0  0  0  0  0  0  0  0  0  0  0
    7.2690   19.8030    8.7640 C   0  0  0  0  0  0  0  0  0  0  0  0
    9.7190   19.1060    4.4870 C   0  0  0  0  0  0  0  0  0  0  0  0
   10.4990   19.7720    3.4700 C   0  0  0  0  0  0  0  0  0  0  0  0
   11.0110   19.0490    2.3630 C   0  0  0  0  0  0  0  0  0  0  0  0
   10.7620   17.6630    2.2440 C   0  0  0  0  0  0  0  0  0  0  0  0
   10.0030   16.9880    3.2360 C   0  0  0  0  0  0  0  0  0  0  0  0
    9.4850   17.7030    4.3490 C   0  0  0  0  0  0  0  0  0  0  0  0
    9.6990   23.0300    8.7320 C   0  0  0  0  0  0  0  0  0  0  0  0
    8.5550   22.7630    7.7470 C   0  0  0  0  0  0  0  0  0  0  0  0
   16.6900   20.6420   14.4420 O   0  0  0  0  0  0  0  0  0  0  0  0
   15.6170   18.9840   15.3970 O   0  0  0  0  0  0  0  0  0  0  0  0
   15.7040   19.8850   14.5270 C   0  0  0  0  0  0  0  0  0  0  0  0
  2  1  1  0
 11  1  1  0
  3  2  1  0
 38  2  1  0
  4  3  1  0
  5  4  2  0
  6  4  1  0
  7  5  1  0
  8  6  2  0
  9  7  2  0
  9  8  1  0
 10  9  1  0
 34 10  1  0
 12 11  2  0
 13 11  1  0
 20 12  1  0
 15 14  2  0
 19 14  1  0
 20 14  1  0
 16 15  1  0
 17 16  2  0
 18 17  1  0
 19 18  2  0
 21 20  2  0
 23 22  1  0
 26 22  1  0
 24 23  2  0
 28 23  1  0
 25 24  1  0
 26 25  2  0
 35 25  1  0
 27 26  1  0
 29 28  2  0
 33 28  1  0
 30 29  1  0
 31 30  2  0
 32 31  1  0
 33 32  2  0
 35 34  1  0
 38 36  2  0
 38 37  1  0
A    1
N
A    2
CA
A    3
CB
A    4
CG
A    5
CD1
A    6
CD2
A    7
CE1
A    8
CE2
A    9
CZ
A   10
OH
A   11
C1A
A   12
C1F
A   13
C1B
A   14
C1H
A   15
C1I
A   16
C1J
A   17
C1K
A   18
C1L
A   19
C1M
A   20
C1G
A   21
O1G
A   22
O3F
A   23
C3G
A   24
N3H
A   25
C3C
A   26
C3D
A   27
C3E
A   28
C3I
A   29
C3N
A   30
C3M
A   31
C3L
A   32
C3K
A   33
C3J
A   34
C3A
A   35
C3B
A   36
O2
A   37
O1
A   38
C
M  END
>  <Id>  (9) 
1K74_544_D_478

>  <ChainId>  (9) 
D

>  <AsymId>  (9) 
F

>  <SeqNum>  (9) 
478

>  <Name>  (9) 
2-(1-METHYL-3-OXO-3-PHENYL-PROPYLAMINO)-3-{4-[2-(5-METHYL-2-PHENYL-OXAZOL-4-YL)-ETHOXY]-PHENYL}-PROPIONIC ACID

>  <SystematicName>  (9) 
(2S)-3-[4-[2-(5-methyl-2-phenyl-1,3-oxazol-4-yl)ethoxy]phenyl]-2-[[(Z)-4-oxo-4-phenyl-but-2-en-2-yl]amino]propanoic acid

>  <Synonyms>  (9) 
GW409544

>  <Type>  (9) 
NON-POLYMER

>  <Formula>  (9) 
C31 H30 N2 O5

>  <ObservedFormula>  (9) 
C31 N2 O5

>  <MolecularWeight>  (9) 
510.58

>  <ModifiedDate>  (9) 
2011-06-04

>  <Parent>  (9) 


>  <OneLetterCode>  (9) 


>  <SubcomponentList>  (9) 


>  <AmbiguousFlag>  (9) 
N

>  <InsertionCode>  (9) 


>  <InstanceId>  (9) 
1K74_544_D_478

>  <ChemCompId>  (9) 
544

>  <PdbId>  (9) 
1K74

>  <ResidueNumber>  (9) 
478

>  <InChI>  (9) 
InChI=1S/C31H30N2O5/c1-21(19-29(34)24-9-5-3-6-10-24)32-28(31(35)36)20-23-13-15-26(16-14-23)37-18-17-27-22(2)38-30(33-27)25-11-7-4-8-12-25/h3-16,19,28,32H,17-18,20H2,1-2H3,(H,35,36)/b21-19-/t28-/m0/s1

>  <InChIKey>  (9) 
GGUVRMBIEPYOKL-WMVCGJOFSA-N

>  <SMILES>  (9) 
Cc1c(nc(o1)c2ccccc2)CCOc3ccc(cc3)C[C@@H](C(=O)O)N/C(=C\C(=O)c4ccccc4)/C

>  <MissingHeavyAtoms>  (9) 
0

>  <Model>  (9) 
1

>  <AltIds>  (9) 


>  <pKI>  (9) 
9.0

>  <ChemblID>  (9) 
CHEMBL410478

>  <standardized_canonical_smiles>  (9) 
C/C(=C/C(=O)c1ccccc1)N[C@@H](Cc1ccc(OCCc2nc(-c3ccccc3)oc2C)cc1)C(=O)O

$$$$
2POB_GW4_A_478
     RDKit          3D

 43 47  0  0  0  0  0  0  0  0999 V2000
   64.8020   33.7220    8.5050 O   0  0  0  0  0  0  0  0  0  0  0  0
   63.5570   34.2710    8.5500 C   0  0  0  0  0  0  0  0  0  0  0  0
   62.6060   33.4690    8.9810 N   0  0  0  0  0  0  0  0  0  0  0  0
   63.2810   32.3070    9.2450 C   0  0  0  0  0  0  0  0  0  0  0  0
   64.6150   32.4570    8.9590 C   0  0  0  0  0  0  0  0  0  0  0  0
   65.8030   31.5800    9.0360 C   0  0  0  0  0  0  0  0  0  0  0  0
   63.4750   35.6320    8.0980 C   0  0  0  0  0  0  0  0  0  0  0  0
   62.2480   36.2370    7.9450 C   0  0  0  0  0  0  0  0  0  0  0  0
   62.1600   37.5320    7.4900 C   0  0  0  0  0  0  0  0  0  0  0  0
   63.3110   38.2180    7.1750 C   0  0  0  0  0  0  0  0  0  0  0  0
   64.5400   37.6170    7.3230 C   0  0  0  0  0  0  0  0  0  0  0  0
   64.6200   36.3250    7.7870 C   0  0  0  0  0  0  0  0  0  0  0  0
   66.5200   31.7730   16.8500 N   0  0  0  0  0  0  0  0  0  0  0  0
   65.5190   31.0280   17.6130 C   0  0  0  0  0  0  0  0  0  0  0  0
   66.0550   30.7110   18.9980 C   0  0  0  0  0  0  0  0  0  0  0  0
   65.0120   30.2220   19.8610 N   0  0  0  0  0  0  0  0  0  0  0  0
   65.2290   29.7230   16.9180 C   0  0  0  0  0  0  0  0  0  0  0  0
   64.8980   29.9870   15.4980 C   0  0  0  0  0  0  0  0  0  0  0  0
   65.8870   29.9460   14.5410 C   0  0  0  0  0  0  0  0  0  0  0  0
   63.5990   30.2680   15.1420 C   0  0  0  0  0  0  0  0  0  0  0  0
   65.5820   30.1880   13.2200 C   0  0  0  0  0  0  0  0  0  0  0  0
   63.2850   30.5090   13.8250 C   0  0  0  0  0  0  0  0  0  0  0  0
   64.2820   30.4700   12.8680 C   0  0  0  0  0  0  0  0  0  0  0  0
   64.0680   30.7030   11.5260 O   0  0  0  0  0  0  0  0  0  0  0  0
   66.6220   33.1600   17.1570 C   0  0  0  0  0  0  0  0  0  0  0  0
   67.5460   33.9850   16.5370 C   0  0  0  0  0  0  0  0  0  0  0  0
   67.6330   35.3310   16.8320 C   0  0  0  0  0  0  0  0  0  0  0  0
   66.8070   35.9010   17.7610 C   0  0  0  0  0  0  0  0  0  0  0  0
   65.8860   35.1080   18.3870 C   0  0  0  0  0  0  0  0  0  0  0  0
   65.7980   33.7690   18.0840 C   0  0  0  0  0  0  0  0  0  0  0  0
   69.5900   34.2790   15.0740 C   0  0  0  0  0  0  0  0  0  0  0  0
   69.8340   34.3550   13.7200 C   0  0  0  0  0  0  0  0  0  0  0  0
   70.8780   35.1240   13.2590 C   0  0  0  0  0  0  0  0  0  0  0  0
   71.6630   35.8140   14.1590 C   0  0  0  0  0  0  0  0  0  0  0  0
   71.4140   35.7350   15.5120 C   0  0  0  0  0  0  0  0  0  0  0  0
   70.3760   34.9640   15.9790 C   0  0  0  0  0  0  0  0  0  0  0  0
   68.4710   33.4470   15.5320 C   0  0  0  0  0  0  0  0  0  0  0  0
   68.3240   32.3230   15.0720 O   0  0  0  0  0  0  0  0  0  0  0  0
   62.7240   31.0940   11.2690 C   0  0  0  0  0  0  0  0  0  0  0  0
   62.5730   31.1410    9.7660 C   0  0  0  0  0  0  0  0  0  0  0  0
   64.2870   31.0760   20.6630 C   0  0  0  0  0  0  0  0  0  0  0  0
   63.3250   30.3410   21.5350 C   0  0  0  0  0  0  0  0  0  0  0  0
   64.3780   32.2950   20.7010 O   0  0  0  0  0  0  0  0  0  0  0  0
  2  1  1  0
  5  1  1  0
  3  2  2  0
  7  2  1  0
  4  3  1  0
  5  4  2  0
 40  4  1  0
  6  5  1  0
  8  7  2  0
 12  7  1  0
  9  8  1  0
 10  9  2  0
 11 10  1  0
 12 11  2  0
 14 13  1  0
 25 13  1  0
 15 14  1  0
 17 14  1  0
 16 15  1  0
 41 16  1  0
 18 17  1  0
 19 18  2  0
 20 18  1  0
 21 19  1  0
 22 20  2  0
 23 21  2  0
 23 22  1  0
 24 23  1  0
 39 24  1  0
 26 25  1  0
 30 25  2  0
 27 26  2  0
 37 26  1  0
 28 27  1  0
 29 28  2  0
 30 29  1  0
 32 31  2  0
 36 31  1  0
 37 31  1  0
 33 32  1  0
 34 33  2  0
 35 34  1  0
 36 35  2  0
 38 37  2  0
 40 39  1  0
 42 41  1  0
 43 41  2  0
A    1
O
A    2
C
A    3
N
A    4
C1
A    5
C2
A    6
C3
A    7
C4
A    8
C5
A    9
C6
A   10
C7
A   11
C8
A   12
C9
A   13
N1
A   14
C10
A   15
C11
A   16
N2
A   17
C12
A   18
C13
A   19
C14
A   20
C15
A   21
C16
A   22
C17
A   23
C18
A   24
O1
A   25
C19
A   26
C20
A   27
C21
A   28
C22
A   29
C23
A   30
C24
A   31
C25
A   32
C26
A   33
C27
A   34
C28
A   35
C29
A   36
C30
A   37
C31
A   38
O2
A   39
C32
A   40
C33
A   41
C34
A   42
C35
A   43
O3
M  END
>  <Id>  (10) 
2POB_GW4_A_478

>  <ChainId>  (10) 
A

>  <AsymId>  (10) 
C

>  <SeqNum>  (10) 
478

>  <Name>  (10) 
N-[(2S)-2-[(2-BENZOYLPHENYL)AMINO]-3-{4-[2-(5-METHYL-2-PHENYL-1,3-OXAZOL-4-YL)ETHOXY]PHENYL}PROPYL]ACETAMIDE

>  <SystematicName>  (10) 
N-[(2S)-3-[4-[2-(5-methyl-2-phenyl-1,3-oxazol-4-yl)ethoxy]phenyl]-2-[[2-(phenylcarbonyl)phenyl]amino]propyl]ethanamide

>  <Synonyms>  (10) 


>  <Type>  (10) 
NON-POLYMER

>  <Formula>  (10) 
C36 H35 N3 O4

>  <ObservedFormula>  (10) 
C36 N3 O4

>  <MolecularWeight>  (10) 
573.681

>  <ModifiedDate>  (10) 
2011-06-04

>  <Parent>  (10) 


>  <OneLetterCode>  (10) 


>  <SubcomponentList>  (10) 


>  <AmbiguousFlag>  (10) 


>  <InsertionCode>  (10) 


>  <InstanceId>  (10) 
2POB_GW4_A_478

>  <ChemCompId>  (10) 
GW4

>  <PdbId>  (10) 
2POB

>  <ResidueNumber>  (10) 
478

>  <InChI>  (10) 
InChI=1S/C36H35N3O4/c1-25-33(39-36(43-25)29-13-7-4-8-14-29)21-22-42-31-19-17-27(18-20-31)23-30(24-37-26(2)40)38-34-16-10-9-15-32(34)35(41)28-11-5-3-6-12-28/h3-20,30,38H,21-24H2,1-2H3,(H,37,40)/t30-/m0/s1

>  <InChIKey>  (10) 
WCJXONGEWJNZQV-PMERELPUSA-N

>  <SMILES>  (10) 
Cc1c(nc(o1)c2ccccc2)CCOc3ccc(cc3)C[C@@H](CNC(=O)C)Nc4ccccc4C(=O)c5ccccc5

>  <MissingHeavyAtoms>  (10) 
0

>  <Model>  (10) 
1

>  <AltIds>  (10) 


>  <pKI>  (10) 
6.86

>  <ChemblID>  (10) 
CHEMBL230259

>  <standardized_canonical_smiles>  (10) 
CC(=O)NC[C@H](Cc1ccc(OCCc2nc(-c3ccccc3)oc2C)cc1)Nc1ccccc1C(=O)c1ccccc1

$$$$
2I4J_DRJ_A_999
     RDKit          3D

 33 35  0  0  0  0  0  0  0  0999 V2000
   20.8460   20.1950   21.2420 C   0  0  0  0  0  0  0  0  0  0  0  0
   21.1950   19.3430   20.0180 C   0  0  0  0  0  0  0  0  0  0  0  0
   19.9780   18.6660   19.3810 C   0  0  0  0  0  0  0  0  0  0  0  0
   19.3140   17.7690   20.4310 C   0  0  0  0  0  0  0  0  0  0  0  0
   20.0500   16.9290   20.9940 O   0  0  0  0  0  0  0  0  0  0  0  0
   18.0950   17.9350   20.6490 O   0  0  0  0  0  0  0  0  0  0  0  0
   18.9850   19.7150   18.8690 C   0  0  0  0  0  0  0  0  0  0  0  0
   20.4570   17.8710   18.2870 O   0  0  0  0  0  0  0  0  0  0  0  0
   19.5840   17.2500   17.4440 C   0  0  0  0  0  0  0  0  0  0  0  0
   18.3590   16.7520   17.8890 C   0  0  0  0  0  0  0  0  0  0  0  0
   17.4790   16.1500   16.9980 C   0  0  0  0  0  0  0  0  0  0  0  0
   19.9300   17.1230   16.1030 C   0  0  0  0  0  0  0  0  0  0  0  0
   19.0500   16.5210   15.2060 C   0  0  0  0  0  0  0  0  0  0  0  0
   17.8220   16.0450   15.6510 C   0  0  0  0  0  0  0  0  0  0  0  0
   16.8100   15.5160   14.6370 C   0  0  0  0  0  0  0  0  0  0  0  0
   15.8270   16.6310   14.2680 C   0  0  0  0  0  0  0  0  0  0  0  0
   15.2460   16.3560   12.9500 N   0  0  0  0  0  0  0  0  0  0  0  0
   13.9130   15.7340   12.8380 C   0  0  0  0  0  0  0  0  0  0  0  0
   13.5730   14.9680   14.1190 C   0  0  0  0  0  0  0  0  0  0  0  0
   12.1800   14.3320   14.0800 C   0  0  0  0  0  0  0  0  0  0  0  0
   11.8140   13.8120   15.4750 C   0  0  0  0  0  0  0  0  0  0  0  0
   10.3230   13.4700   15.5750 C   0  0  0  0  0  0  0  0  0  0  0  0
    9.9320   13.2980   17.0470 C   0  0  0  0  0  0  0  0  0  0  0  0
    8.5590   12.6350   17.1800 C   0  0  0  0  0  0  0  0  0  0  0  0
   15.9860   16.6510   11.8880 C   0  0  0  0  0  0  0  0  0  0  0  0
   17.2570   17.1370   11.9940 O   0  0  0  0  0  0  0  0  0  0  0  0
   17.7260   17.2810   10.7210 C   0  0  0  0  0  0  0  0  0  0  0  0
   18.9350   17.7280   10.2130 C   0  0  0  0  0  0  0  0  0  0  0  0
   19.1360   17.7740    8.8310 C   0  0  0  0  0  0  0  0  0  0  0  0
   18.1210   17.3710    7.9770 C   0  0  0  0  0  0  0  0  0  0  0  0
   16.9030   16.9200    8.4950 C   0  0  0  0  0  0  0  0  0  0  0  0
   16.7020   16.8730    9.8640 C   0  0  0  0  0  0  0  0  0  0  0  0
   15.6620   16.4970   10.6100 N   0  0  0  0  0  0  0  0  0  0  0  0
  2  1  1  0
  3  2  1  0
  4  3  1  0
  7  3  1  0
  8  3  1  0
  5  4  1  0
  6  4  2  0
  9  8  1  0
 10  9  2  0
 12  9  1  0
 11 10  1  0
 14 11  2  0
 13 12  2  0
 14 13  1  0
 15 14  1  0
 16 15  1  0
 17 16  1  0
 18 17  1  0
 25 17  1  0
 19 18  1  0
 20 19  1  0
 21 20  1  0
 22 21  1  0
 23 22  1  0
 24 23  1  0
 26 25  1  0
 33 25  2  0
 27 26  1  0
 28 27  2  0
 32 27  1  0
 29 28  1  0
 30 29  2  0
 31 30  1  0
 32 31  2  0
 33 32  1  0
A    1
CAB
A    2
CAO
A    3
CBG
A    4
CAZ
A    5
OAE
A    6
OAD
A    7
CAC
A    8
OAX
A    9
CBB
A   10
CAK
A   11
CAI
A   12
CAJ
A   13
CAH
A   14
CBA
A   15
CAT
A   16
CAV
A   17
NBF
A   18
CAU
A   19
CAS
A   20
CAR
A   21
CAQ
A   22
CAP
A   23
CAN
A   24
CAA
A   25
CBC
A   26
OAY
A   27
CBE
A   28
CAM
A   29
CAG
A   30
CAF
A   31
CAL
A   32
CBD
A   33
NAW
M  END
>  <Id>  (11) 
2I4J_DRJ_A_999

>  <ChainId>  (11) 
A

>  <AsymId>  (11) 
C

>  <SeqNum>  (11) 
999

>  <Name>  (11) 
(2R)-2-(4-{2-[1,3-BENZOXAZOL-2-YL(HEPTYL)AMINO]ETHYL}PHENOXY)-2-METHYLBUTANOIC ACID

>  <SystematicName>  (11) 
(2R)-2-[4-[2-(1,3-benzoxazol-2-yl-heptyl-amino)ethyl]phenoxy]-2-methyl-butanoic acid

>  <Synonyms>  (11) 


>  <Type>  (11) 
NON-POLYMER

>  <Formula>  (11) 
C27 H36 N2 O4

>  <ObservedFormula>  (11) 
C27 N2 O4

>  <MolecularWeight>  (11) 
452.586

>  <ModifiedDate>  (11) 
2011-06-04

>  <Parent>  (11) 


>  <OneLetterCode>  (11) 


>  <SubcomponentList>  (11) 


>  <AmbiguousFlag>  (11) 


>  <InsertionCode>  (11) 


>  <InstanceId>  (11) 
2I4J_DRJ_A_999

>  <ChemCompId>  (11) 
DRJ

>  <PdbId>  (11) 
2I4J

>  <ResidueNumber>  (11) 
999

>  <InChI>  (11) 
InChI=1S/C27H36N2O4/c1-4-6-7-8-11-19-29(26-28-23-12-9-10-13-24(23)32-26)20-18-21-14-16-22(17-15-21)33-27(3,5-2)25(30)31/h9-10,12-17H,4-8,11,18-20H2,1-3H3,(H,30,31)/t27-/m1/s1

>  <InChIKey>  (11) 
QPKIEBNVIOELIR-HHHXNRCGSA-N

>  <SMILES>  (11) 
CCCCCCCN(CCc1ccc(cc1)O[C@](C)(CC)C(=O)O)c2nc3ccccc3o2

>  <MissingHeavyAtoms>  (11) 
0

>  <Model>  (11) 
1

>  <AltIds>  (11) 


>  <pKI>  (11) 
7.06

>  <ChemblID>  (11) 
CHEMBL479207

>  <standardized_canonical_smiles>  (11) 
CCCCCCCN(CCc1ccc(O[C@](C)(CC)C(=O)O)cc1)c1nc2ccccc2o1

$$$$
2I4P_DRH_A_999
     RDKit          3D

 33 35  0  0  0  0  0  0  0  0999 V2000
   19.9570   20.9670   17.2010 C   0  0  0  0  0  0  0  0  0  0  0  0
   19.0550   19.9690   17.9360 C   0  0  0  0  0  0  0  0  0  0  0  0
   19.8090   18.7160   18.3920 C   0  0  0  0  0  0  0  0  0  0  0  0
   18.9360   17.9330   19.3800 C   0  0  0  0  0  0  0  0  0  0  0  0
   19.4040   17.6920   20.5030 O   0  0  0  0  0  0  0  0  0  0  0  0
   17.7790   17.6120   18.9950 O   0  0  0  0  0  0  0  0  0  0  0  0
   21.0940   19.1130   19.1230 C   0  0  0  0  0  0  0  0  0  0  0  0
   20.2170   17.9380   17.2560 O   0  0  0  0  0  0  0  0  0  0  0  0
   19.3900   17.1840   16.4650 C   0  0  0  0  0  0  0  0  0  0  0  0
   18.3430   16.4410   16.9850 C   0  0  0  0  0  0  0  0  0  0  0  0
   17.5640   15.6260   16.1510 C   0  0  0  0  0  0  0  0  0  0  0  0
   19.6490   17.1360   15.1040 C   0  0  0  0  0  0  0  0  0  0  0  0
   18.8730   16.3230   14.2660 C   0  0  0  0  0  0  0  0  0  0  0  0
   17.8350   15.5780   14.7930 C   0  0  0  0  0  0  0  0  0  0  0  0
   17.0370   14.6420   13.8650 C   0  0  0  0  0  0  0  0  0  0  0  0
   15.5210   14.7040   14.0440 C   0  0  0  0  0  0  0  0  0  0  0  0
   14.8500   15.8340   13.3700 N   0  0  0  0  0  0  0  0  0  0  0  0
   13.3900   15.7750   13.2080 C   0  0  0  0  0  0  0  0  0  0  0  0
   12.7020   15.1560   14.4280 C   0  0  0  0  0  0  0  0  0  0  0  0
   11.2420   14.8350   14.1190 C   0  0  0  0  0  0  0  0  0  0  0  0
   10.5970   14.3020   15.4000 C   0  0  0  0  0  0  0  0  0  0  0  0
    9.1610   13.8240   15.1880 C   0  0  0  0  0  0  0  0  0  0  0  0
    8.5480   13.4210   16.5270 C   0  0  0  0  0  0  0  0  0  0  0  0
    9.4180   12.3890   17.2580 C   0  0  0  0  0  0  0  0  0  0  0  0
   15.4700   16.7130   12.5870 C   0  0  0  0  0  0  0  0  0  0  0  0
   16.7540   16.6140   12.1140 O   0  0  0  0  0  0  0  0  0  0  0  0
   16.8900   17.6190   11.1970 C   0  0  0  0  0  0  0  0  0  0  0  0
   17.9280   17.9980   10.3620 C   0  0  0  0  0  0  0  0  0  0  0  0
   17.7640   19.0650    9.4830 C   0  0  0  0  0  0  0  0  0  0  0  0
   16.5510   19.7590    9.4430 C   0  0  0  0  0  0  0  0  0  0  0  0
   15.5130   19.3780   10.2800 C   0  0  0  0  0  0  0  0  0  0  0  0
   15.6760   18.3100   11.1550 C   0  0  0  0  0  0  0  0  0  0  0  0
   14.8440   17.7310   12.0150 N   0  0  0  0  0  0  0  0  0  0  0  0
  2  1  1  0
  3  2  1  0
  4  3  1  0
  7  3  1  0
  8  3  1  0
  5  4  1  0
  6  4  2  0
  9  8  1  0
 10  9  2  0
 12  9  1  0
 11 10  1  0
 14 11  2  0
 13 12  2  0
 14 13  1  0
 15 14  1  0
 16 15  1  0
 17 16  1  0
 18 17  1  0
 25 17  1  0
 19 18  1  0
 20 19  1  0
 21 20  1  0
 22 21  1  0
 23 22  1  0
 24 23  1  0
 26 25  1  0
 33 25  2  0
 27 26  1  0
 28 27  2  0
 32 27  1  0
 29 28  1  0
 30 29  2  0
 31 30  1  0
 32 31  2  0
 33 32  1  0
A    1
CAB
A    2
CAO
A    3
CBG
A    4
CAZ
A    5
OAE
A    6
OAD
A    7
CAC
A    8
OAX
A    9
CBB
A   10
CAK
A   11
CAI
A   12
CAJ
A   13
CAH
A   14
CBA
A   15
CAT
A   16
CAV
A   17
NBF
A   18
CAU
A   19
CAS
A   20
CAR
A   21
CAQ
A   22
CAP
A   23
CAN
A   24
CAA
A   25
CBC
A   26
OAY
A   27
CBE
A   28
CAM
A   29
CAG
A   30
CAF
A   31
CAL
A   32
CBD
A   33
NAW
M  END
>  <Id>  (12) 
2I4P_DRH_A_999

>  <ChainId>  (12) 
A

>  <AsymId>  (12) 
C

>  <SeqNum>  (12) 
999

>  <Name>  (12) 
(2S)-2-(4-{2-[1,3-BENZOXAZOL-2-YL(HEPTYL)AMINO]ETHYL}PHENOXY)-2-METHYLBUTANOIC ACID

>  <SystematicName>  (12) 
(2S)-2-[4-[2-(1,3-benzoxazol-2-yl-heptyl-amino)ethyl]phenoxy]-2-methyl-butanoic acid

>  <Synonyms>  (12) 


>  <Type>  (12) 
NON-POLYMER

>  <Formula>  (12) 
C27 H36 N2 O4

>  <ObservedFormula>  (12) 
C27 N2 O4

>  <MolecularWeight>  (12) 
452.586

>  <ModifiedDate>  (12) 
2011-06-04

>  <Parent>  (12) 


>  <OneLetterCode>  (12) 


>  <SubcomponentList>  (12) 


>  <AmbiguousFlag>  (12) 


>  <InsertionCode>  (12) 


>  <InstanceId>  (12) 
2I4P_DRH_A_999

>  <ChemCompId>  (12) 
DRH

>  <PdbId>  (12) 
2I4P

>  <ResidueNumber>  (12) 
999

>  <InChI>  (12) 
InChI=1S/C27H36N2O4/c1-4-6-7-8-11-19-29(26-28-23-12-9-10-13-24(23)32-26)20-18-21-14-16-22(17-15-21)33-27(3,5-2)25(30)31/h9-10,12-17H,4-8,11,18-20H2,1-3H3,(H,30,31)/t27-/m0/s1

>  <InChIKey>  (12) 
QPKIEBNVIOELIR-MHZLTWQESA-N

>  <SMILES>  (12) 
CCCCCCC[N@@](CCc1ccc(cc1)O[C@@](C)(CC)C(=O)O)c2nc3ccccc3o2

>  <MissingHeavyAtoms>  (12) 
0

>  <Model>  (12) 
1

>  <AltIds>  (12) 


>  <pKI>  (12) 
6.01

>  <ChemblID>  (12) 
CHEMBL477119

>  <standardized_canonical_smiles>  (12) 
CCCCCCCN(CCc1ccc(O[C@@](C)(CC)C(=O)O)cc1)c1nc2ccccc2o1

$$$$
2I4Z_DRH_A_999
     RDKit          3D

 33 35  0  0  0  0  0  0  0  0999 V2000
   20.3000   20.6650   17.3190 C   0  0  0  0  0  0  0  0  0  0  0  0
   19.4260   19.9370   18.3420 C   0  0  0  0  0  0  0  0  0  0  0  0
   20.2080   18.8450   19.0780 C   0  0  0  0  0  0  0  0  0  0  0  0
   19.3130   18.1370   20.1000 C   0  0  0  0  0  0  0  0  0  0  0  0
   19.8810   17.5570   21.0510 O   0  0  0  0  0  0  0  0  0  0  0  0
   18.0780   18.1780   19.9110 O   0  0  0  0  0  0  0  0  0  0  0  0
   21.3870   19.4650   19.8330 C   0  0  0  0  0  0  0  0  0  0  0  0
   20.7490   17.9110   18.1350 O   0  0  0  0  0  0  0  0  0  0  0  0
   19.9920   17.1370   17.3030 C   0  0  0  0  0  0  0  0  0  0  0  0
   18.7520   16.6200   17.6720 C   0  0  0  0  0  0  0  0  0  0  0  0
   18.0570   15.7740   16.8100 C   0  0  0  0  0  0  0  0  0  0  0  0
   20.5230   16.8090   16.0590 C   0  0  0  0  0  0  0  0  0  0  0  0
   19.8300   15.9640   15.1970 C   0  0  0  0  0  0  0  0  0  0  0  0
   18.5960   15.4410   15.5700 C   0  0  0  0  0  0  0  0  0  0  0  0
   17.8990   14.4570   14.6240 C   0  0  0  0  0  0  0  0  0  0  0  0
   16.3690   14.5010   14.6760 C   0  0  0  0  0  0  0  0  0  0  0  0
   15.7340   15.2790   13.5980 N   0  0  0  0  0  0  0  0  0  0  0  0
   14.2710   15.2320   13.4370 C   0  0  0  0  0  0  0  0  0  0  0  0
   13.5840   14.5440   14.6180 C   0  0  0  0  0  0  0  0  0  0  0  0
   12.0750   14.4180   14.4020 C   0  0  0  0  0  0  0  0  0  0  0  0
   11.4290   13.8830   15.6810 C   0  0  0  0  0  0  0  0  0  0  0  0
    9.9140   13.7210   15.5420 C   0  0  0  0  0  0  0  0  0  0  0  0
    9.2820   13.3410   16.8830 C   0  0  0  0  0  0  0  0  0  0  0  0
    9.8490   12.0280   17.4290 C   0  0  0  0  0  0  0  0  0  0  0  0
   16.4220   15.8790   12.6270 C   0  0  0  0  0  0  0  0  0  0  0  0
   17.7700   15.7870   12.4210 O   0  0  0  0  0  0  0  0  0  0  0  0
   18.0220   16.4680   11.2650 C   0  0  0  0  0  0  0  0  0  0  0  0
   19.1880   16.6990   10.5420 C   0  0  0  0  0  0  0  0  0  0  0  0
   19.1370   17.4280    9.3570 C   0  0  0  0  0  0  0  0  0  0  0  0
   17.9210   17.9260    8.8990 C   0  0  0  0  0  0  0  0  0  0  0  0
   16.7540   17.6960    9.6210 C   0  0  0  0  0  0  0  0  0  0  0  0
   16.8070   16.9640   10.8030 C   0  0  0  0  0  0  0  0  0  0  0  0
   15.8580   16.5890   11.6550 N   0  0  0  0  0  0  0  0  0  0  0  0
  2  1  1  0
  3  2  1  0
  4  3  1  0
  7  3  1  0
  8  3  1  0
  5  4  1  0
  6  4  2  0
  9  8  1  0
 10  9  2  0
 12  9  1  0
 11 10  1  0
 14 11  2  0
 13 12  2  0
 14 13  1  0
 15 14  1  0
 16 15  1  0
 17 16  1  0
 18 17  1  0
 25 17  1  0
 19 18  1  0
 20 19  1  0
 21 20  1  0
 22 21  1  0
 23 22  1  0
 24 23  1  0
 26 25  1  0
 33 25  2  0
 27 26  1  0
 28 27  2  0
 32 27  1  0
 29 28  1  0
 30 29  2  0
 31 30  1  0
 32 31  2  0
 33 32  1  0
A    1
CAB
A    2
CAO
A    3
CBG
A    4
CAZ
A    5
OAE
A    6
OAD
A    7
CAC
A    8
OAX
A    9
CBB
A   10
CAK
A   11
CAI
A   12
CAJ
A   13
CAH
A   14
CBA
A   15
CAT
A   16
CAV
A   17
NBF
A   18
CAU
A   19
CAS
A   20
CAR
A   21
CAQ
A   22
CAP
A   23
CAN
A   24
CAA
A   25
CBC
A   26
OAY
A   27
CBE
A   28
CAM
A   29
CAG
A   30
CAF
A   31
CAL
A   32
CBD
A   33
NAW
M  END
>  <Id>  (13) 
2I4Z_DRH_A_999

>  <ChainId>  (13) 
A

>  <AsymId>  (13) 
C

>  <SeqNum>  (13) 
999

>  <Name>  (13) 
(2S)-2-(4-{2-[1,3-BENZOXAZOL-2-YL(HEPTYL)AMINO]ETHYL}PHENOXY)-2-METHYLBUTANOIC ACID

>  <SystematicName>  (13) 
(2S)-2-[4-[2-(1,3-benzoxazol-2-yl-heptyl-amino)ethyl]phenoxy]-2-methyl-butanoic acid

>  <Synonyms>  (13) 


>  <Type>  (13) 
NON-POLYMER

>  <Formula>  (13) 
C27 H36 N2 O4

>  <ObservedFormula>  (13) 
C27 N2 O4

>  <MolecularWeight>  (13) 
452.586

>  <ModifiedDate>  (13) 
2011-06-04

>  <Parent>  (13) 


>  <OneLetterCode>  (13) 


>  <SubcomponentList>  (13) 


>  <AmbiguousFlag>  (13) 


>  <InsertionCode>  (13) 


>  <InstanceId>  (13) 
2I4Z_DRH_A_999

>  <ChemCompId>  (13) 
DRH

>  <PdbId>  (13) 
2I4Z

>  <ResidueNumber>  (13) 
999

>  <InChI>  (13) 
InChI=1S/C27H36N2O4/c1-4-6-7-8-11-19-29(26-28-23-12-9-10-13-24(23)32-26)20-18-21-14-16-22(17-15-21)33-27(3,5-2)25(30)31/h9-10,12-17H,4-8,11,18-20H2,1-3H3,(H,30,31)/t27-/m0/s1

>  <InChIKey>  (13) 
QPKIEBNVIOELIR-MHZLTWQESA-N

>  <SMILES>  (13) 
CCCCCCC[N@@](CCc1ccc(cc1)O[C@@](C)(CC)C(=O)O)c2nc3ccccc3o2

>  <MissingHeavyAtoms>  (13) 
0

>  <Model>  (13) 
1

>  <AltIds>  (13) 


>  <pKI>  (13) 
6.01

>  <ChemblID>  (13) 
CHEMBL477119

>  <standardized_canonical_smiles>  (13) 
CCCCCCCN(CCc1ccc(O[C@@](C)(CC)C(=O)O)cc1)c1nc2ccccc2o1

$$$$
3H0A_D30_D_500
     RDKit          3D

 40 43  0  0  0  0  0  0  0  0999 V2000
   67.7960   -2.2630    0.1760 C   0  0  0  0  0  0  0  0  0  0  0  0
   69.5260   -3.7280    0.9670 C   0  0  0  0  0  0  0  0  0  0  0  0
   66.9680   -0.9990    0.2270 C   0  0  0  0  0  0  0  0  0  0  0  0
   74.8550   -5.0370    3.4270 C   0  0  0  0  0  0  0  0  0  0  0  0
   68.3300   -0.3150    2.2800 C   0  0  0  0  0  0  0  0  0  0  0  0
   68.1930   -4.3790   -0.9350 C   0  0  0  0  0  0  0  0  0  0  0  0
   73.3080   -2.4420   -0.5730 C   0  0  0  0  0  0  0  0  0  0  0  0
   76.2830   -1.7320    5.3130 C   0  0  0  0  0  0  0  0  0  0  0  0
   77.7050   -3.6620   -1.9010 C   0  0  0  0  0  0  0  0  0  0  0  0
   78.2800   -4.9210   -2.0640 C   0  0  0  0  0  0  0  0  0  0  0  0
   78.4050   -2.5290   -2.3000 C   0  0  0  0  0  0  0  0  0  0  0  0
   79.5520   -5.0280   -2.6240 C   0  0  0  0  0  0  0  0  0  0  0  0
   79.6740   -2.6250   -2.8450 C   0  0  0  0  0  0  0  0  0  0  0  0
   80.2490   -3.8790   -3.0160 C   0  0  0  0  0  0  0  0  0  0  0  0
   81.6390   -3.9960   -3.5930 C   0  0  0  0  0  0  0  0  0  0  0  0
   66.8580   -4.9800   -4.5200 O   0  0  0  0  0  0  0  0  0  0  0  0
   66.9860   -3.9890   -3.8430 C   0  0  0  0  0  0  0  0  0  0  0  0
   67.8730   -3.1460   -4.1290 O   0  0  0  0  0  0  0  0  0  0  0  0
   66.0090   -3.8460   -2.6990 C   0  0  0  0  0  0  0  0  0  0  0  0
   66.4610   -2.8950   -1.7220 O   0  0  0  0  0  0  0  0  0  0  0  0
   67.4780   -3.1880   -0.8130 C   0  0  0  0  0  0  0  0  0  0  0  0
   69.2210   -4.6520   -0.0490 C   0  0  0  0  0  0  0  0  0  0  0  0
   67.6960    0.1080    0.9570 C   0  0  0  0  0  0  0  0  0  0  0  0
   69.2170   -1.5500    2.1770 C   0  0  0  0  0  0  0  0  0  0  0  0
   68.8290   -2.5210    1.0760 C   0  0  0  0  0  0  0  0  0  0  0  0
   70.8040   -4.1110    2.0240 S   0  0  0  0  0  0  0  0  0  0  0  0
   72.2230   -3.6050    1.2030 C   0  0  0  0  0  0  0  0  0  0  0  0
   72.1350   -2.8230    0.0660 C   0  0  0  0  0  0  0  0  0  0  0  0
   73.4920   -3.9420    1.6980 C   0  0  0  0  0  0  0  0  0  0  0  0
   73.6020   -4.7100    2.8260 O   0  0  0  0  0  0  0  0  0  0  0  0
   75.4030   -3.8110    3.9790 C   0  0  0  0  0  0  0  0  0  0  0  0
   75.7950   -2.8360    4.5050 C   0  0  0  0  0  0  0  0  0  0  0  0
   77.6410   -2.1210    5.9070 C   0  0  0  0  0  0  0  0  0  0  0  0
   74.6460   -3.5520    1.0430 C   0  0  0  0  0  0  0  0  0  0  0  0
   74.5560   -2.7800   -0.0910 C   0  0  0  0  0  0  0  0  0  0  0  0
   75.8410   -2.3550   -0.8060 C   0  0  0  0  0  0  0  0  0  0  0  0
   76.4440   -3.5410   -1.3480 O   0  0  0  0  0  0  0  0  0  0  0  0
   81.6430   -4.9440   -4.5050 F   0  0  0  0  0  0  0  0  0  0  0  0
   82.5200   -4.3270   -2.6460 F   0  0  0  0  0  0  0  0  0  0  0  0
   82.0000   -2.8420   -4.1130 F   0  0  0  0  0  0  0  0  0  0  0  0
  3  1  1  0
 21  1  1  0
 25  1  2  0
 22  2  2  0
 25  2  1  0
 26  2  1  0
 23  3  1  0
 30  4  1  0
 31  4  1  0
 23  5  1  0
 24  5  1  0
 21  6  2  0
 22  6  1  0
 28  7  2  0
 35  7  1  0
 32  8  1  0
 33  8  1  0
 10  9  2  0
 11  9  1  0
 37  9  1  0
 12 10  1  0
 13 11  2  0
 14 12  2  0
 14 13  1  0
 15 14  1  0
 38 15  1  0
 39 15  1  0
 40 15  1  0
 17 16  2  0
 18 17  1  0
 19 17  1  0
 20 19  1  0
 21 20  1  0
 25 24  1  0
 27 26  1  0
 28 27  1  0
 29 27  2  0
 30 29  1  0
 34 29  1  0
 32 31  3  0
 35 34  2  0
 36 35  1  0
 37 36  1  0
A    1
C2
A    2
C3
A    3
C6
A    4
C7
A    5
C9
A    6
C10
A    7
C20
A    8
C21
A    9
C26
A   10
C27
A   11
C28
A   12
C29
A   13
C30
A   14
C31
A   15
C32
A   16
O21
A   17
C17
A   18
O22
A   19
C14
A   20
O11
A   21
C5
A   22
C8
A   23
C12
A   24
C4
A   25
C1
A   26
S7
A   27
C13
A   28
C16
A   29
C15
A   30
O1
A   31
C11
A   32
C19
A   33
C22
A   34
C18
A   35
C23
A   36
C24
A   37
O25
A   38
F35
A   39
F33
A   40
F34
M  END
>  <Id>  (14) 
3H0A_D30_D_500

>  <ChainId>  (14) 
D

>  <AsymId>  (14) 
F

>  <SeqNum>  (14) 
500

>  <Name>  (14) 
[(4-{[2-(pent-2-yn-1-yloxy)-4-{[4-(trifluoromethyl)phenoxy]methyl}phenyl]sulfanyl}-5,6,7,8-tetrahydronaphthalen-1-yl)oxy]acetic acid

>  <SystematicName>  (14) 
2-[[4-[2-pent-2-ynoxy-4-[[4-(trifluoromethyl)phenoxy]methyl]phenyl]sulfanyl-5,6,7,8-tetrahydronaphthalen-1-yl]oxy]ethanoic acid

>  <Synonyms>  (14) 


>  <Type>  (14) 
NON-POLYMER

>  <Formula>  (14) 
C31 H29 F3 O5 S

>  <ObservedFormula>  (14) 
C31 S F3 O5

>  <MolecularWeight>  (14) 
570.619

>  <ModifiedDate>  (14) 
2011-06-04

>  <Parent>  (14) 


>  <OneLetterCode>  (14) 


>  <SubcomponentList>  (14) 


>  <AmbiguousFlag>  (14) 
N

>  <InsertionCode>  (14) 


>  <InstanceId>  (14) 
3H0A_D30_D_500

>  <ChemCompId>  (14) 
D30

>  <PdbId>  (14) 
3H0A

>  <ResidueNumber>  (14) 
500

>  <InChI>  (14) 
InChI=1S/C31H29F3O5S/c1-2-3-6-17-37-27-18-21(19-38-23-12-10-22(11-13-23)31(32,33)34)9-15-29(27)40-28-16-14-26(39-20-30(35)36)24-7-4-5-8-25(24)28/h9-16,18H,2,4-5,7-8,17,19-20H2,1H3,(H,35,36)

>  <InChIKey>  (14) 
SIHDSSYICQEWRS-UHFFFAOYSA-N

>  <SMILES>  (14) 
CCC#CCOc1cc(ccc1Sc2ccc(c3c2CCCC3)OCC(=O)O)COc4ccc(cc4)C(F)(F)F

>  <MissingHeavyAtoms>  (14) 
0

>  <Model>  (14) 
1

>  <AltIds>  (14) 


>  <pKI>  (14) 
7.48

>  <ChemblID>  (14) 
CHEMBL501440

>  <standardized_canonical_smiles>  (14) 
CCC#CCOc1cc(COc2ccc(C(F)(F)F)cc2)ccc1Sc1ccc(OCC(=O)O)c2c1CCCC2

$$$$
3B1M_KRC_A_1
     RDKit          3D

 38 42  0  0  0  0  0  0  0  0999 V2000
    7.3670   45.3190   58.3370 C   0  0  0  0  0  0  0  0  0  0  0  0
    9.1190   48.5030   57.6710 C   0  0  0  0  0  0  0  0  0  0  0  0
    7.4490   50.1980   57.1720 C   0  0  0  0  0  0  0  0  0  0  0  0
   12.1040   47.7790   59.6940 C   0  0  0  0  0  0  0  0  0  0  0  0
   13.6810   47.9700   63.1160 C   0  0  0  0  0  0  0  0  0  0  0  0
   12.3410   47.5920   61.1330 C   0  0  0  0  0  0  0  0  0  0  0  0
   13.0450   47.7900   58.9090 O   0  0  0  0  0  0  0  0  0  0  0  0
    8.7890   49.8260   57.3350 C   0  0  0  0  0  0  0  0  0  0  0  0
   10.5550   48.0910   57.8540 C   0  0  0  0  0  0  0  0  0  0  0  0
   14.8810   49.6450   64.6160 C   0  0  0  0  0  0  0  0  0  0  0  0
    6.7490   47.9530   57.6720 C   0  0  0  0  0  0  0  0  0  0  0  0
    8.3970   46.2550   58.1690 C   0  0  0  0  0  0  0  0  0  0  0  0
   14.9780   48.7110   63.3990 C   0  0  0  0  0  0  0  0  0  0  0  0
   11.6630   46.6650   63.2530 C   0  0  0  0  0  0  0  0  0  0  0  0
   17.7510   51.5090   66.1720 C   0  0  0  0  0  0  0  0  0  0  0  0
    8.0920   47.5690   57.8380 C   0  0  0  0  0  0  0  0  0  0  0  0
   13.4550   48.1580   61.7360 C   0  0  0  0  0  0  0  0  0  0  0  0
   14.1550   49.4080   65.5780 O   0  0  0  0  0  0  0  0  0  0  0  0
   10.3340   46.2800   61.2970 O   0  0  0  0  0  0  0  0  0  0  0  0
   16.1630   51.3720   63.4670 C   0  0  0  0  0  0  0  0  0  0  0  0
   16.7400   52.5980   63.4560 O   0  0  0  0  0  0  0  0  0  0  0  0
    6.4310   49.2540   57.3420 C   0  0  0  0  0  0  0  0  0  0  0  0
   15.4430   51.7390   66.7480 O   0  0  0  0  0  0  0  0  0  0  0  0
   16.2490   51.3830   65.9010 C   0  0  0  0  0  0  0  0  0  0  0  0
    9.1820   45.7330   61.8970 C   0  0  0  0  0  0  0  0  0  0  0  0
   12.9800   47.0320   65.2130 O   0  0  0  0  0  0  0  0  0  0  0  0
    6.0340   45.7080   58.1710 C   0  0  0  0  0  0  0  0  0  0  0  0
   10.3990   50.8580   55.7130 C   0  0  0  0  0  0  0  0  0  0  0  0
   15.2070   49.5540   62.1390 C   0  0  0  0  0  0  0  0  0  0  0  0
   14.4690   48.9240   61.2220 O   0  0  0  0  0  0  0  0  0  0  0  0
   12.7740   47.2230   63.8640 C   0  0  0  0  0  0  0  0  0  0  0  0
   15.9890   50.6360   62.1930 C   0  0  0  0  0  0  0  0  0  0  0  0
    9.8750   50.8470   57.1500 C   0  0  0  0  0  0  0  0  0  0  0  0
   10.8360   47.9200   59.2710 N   0  0  0  0  0  0  0  0  0  0  0  0
   15.7740   50.8300   64.6170 C   0  0  0  0  0  0  0  0  0  0  0  0
   11.4420   46.8460   61.8930 C   0  0  0  0  0  0  0  0  0  0  0  0
   16.1410   47.7400   63.5900 C   0  0  0  0  0  0  0  0  0  0  0  0
    5.7310   47.0340   57.8370 C   0  0  0  0  0  0  0  0  0  0  0  0
  6 36  1  0
 11 16  1  0
  6  4  1  0
 13 10  1  0
 29 13  1  0
 27  1  2  0
 31 26  1  0
 20 32  1  0
  5 31  2  0
 24 23  2  0
 13  5  1  0
 36 14  2  0
 14 31  1  0
 38 27  1  0
  8 33  1  0
 35 24  1  0
 17  6  2  0
 22 11  1  0
 35 20  2  0
  1 12  1  0
 34  9  1  0
 33 28  1  0
 10 18  2  0
 32 29  2  0
 35 10  1  0
  3 22  2  0
 24 15  1  0
  2 16  1  0
 36 19  1  0
 13 37  1  0
  8  3  1  0
 11 38  2  0
 30 17  1  0
 19 25  1  0
 17  5  1  0
 29 30  1  0
  4  7  2  0
  9  2  1  0
  4 34  1  0
 20 21  1  0
  2  8  2  0
 16 12  2  0
A    1
C35
A    2
C27
A    3
C29
A    4
C17
A    5
C9
A    6
C10
A    7
O20
A    8
C28
A    9
C26
A   10
C6
A   11
C31
A   12
C36
A   13
C5
A   14
C12
A   15
C23
A   16
C32
A   17
C8
A   18
O14
A   19
O16
A   20
C2
A   21
O22
A   22
C30
A   23
O24
A   24
C21
A   25
C25
A   26
O15
A   27
C34
A   28
C38
A   29
C4
A   30
O7
A   31
C13
A   32
C3
A   33
C37
A   34
N18
A   35
C1
A   36
C11
A   37
C19
A   38
C33
M  END
>  <InstanceId>  (15) 
3B1M_KRC

>  <ChemCompId>  (15) 
KRC

>  <PdbId>  (15) 
3B1M

>  <ChainId>  (15) 
A

>  <ResidueNumber>  (15) 
1

>  <InsertionCode>  (15) 
null

>  <Model>  (15) 
1

>  <AltIds>  (15) 


>  <MissingHeavyAtoms>  (15) 
0

>  <ObservedFormula>  (15) 
C30 N O7

>  <AsymId>  (15) 
C

>  <SeqNum>  (15) 
1

>  <Name>  (15) 
(9aS)-8-acetyl-N-[(2-ethylnaphthalen-1-yl)methyl]-1,7-dihydroxy-3-methoxy-9a-methyl-9-oxo-9,9a-dihydrodibenzo[b,d]furan-4-carboxamide

>  <SystematicName>  (15) 
(9aS)-8-ethanoyl-N-[(2-ethylnaphthalen-1-yl)methyl]-3-methoxy-9a-methyl-1,7-bis(oxidanyl)-9-oxidanylidene-dibenzofuran-4-carboxamide

>  <Synonyms>  (15) 


>  <Type>  (15) 
NON-POLYMER

>  <Formula>  (15) 
C30 H27 N O7

>  <MolecularWeight>  (15) 
513.538

>  <ModifiedDate>  (15) 
2011-08-19

>  <Parent>  (15) 


>  <OneLetterCode>  (15) 


>  <SubcomponentList>  (15) 


>  <AmbiguousFlag>  (15) 
N

>  <InChI>  (15) 
InChI=1S/C30H27NO7/c1-5-16-10-11-17-8-6-7-9-18(17)19(16)14-31-29(36)25-22(37-4)12-21(34)26-27(25)38-23-13-20(33)24(15(2)32)28(35)30(23,26)3/h6-13,33-34H,5,14H2,1-4H3,(H,31,36)/t30-/m1/s1

>  <InChIKey>  (15) 
CCHJJXMWNNECOU-SSEXGKCCSA-N

>  <SMILES>  (15) 
CCc1ccc2ccccc2c1CNC(=O)c3c(cc(c4c3OC5=CC(=C(C(=O)[C@@]45C)C(=O)C)O)O)OC

>  <pKI>  (15) 
8.48

>  <ChemblID>  (15) 
-

>  <standardized_canonical_smiles>  (15) 
CCc1ccc2ccccc2c1CNC(=O)c1c(OC)cc(O)c2c1OC1=CC(O)=C(C(C)=O)C(=O)[C@]12C

$$$$
3U9Q_DKA_A_1
     RDKit          3D

 12 11  0  0  0  0  0  0  0  0999 V2000
    3.5090    3.8460   20.2220 C   0  0  0  0  0  0  0  0  0  0  0  0
    2.5500    4.0310   19.4740 O   0  0  0  0  0  0  0  0  0  0  0  0
    3.3640    3.1980   21.5910 C   0  0  0  0  0  0  0  0  0  0  0  0
    2.5490    1.8960   21.5000 C   0  0  0  0  0  0  0  0  0  0  0  0
    2.8540    0.8800   22.5970 C   0  0  0  0  0  0  0  0  0  0  0  0
    1.7040   -0.0950   22.7900 C   0  0  0  0  0  0  0  0  0  0  0  0
    1.8960   -0.9800   24.0220 C   0  0  0  0  0  0  0  0  0  0  0  0
    0.9460   -2.1600   24.0050 C   0  0  0  0  0  0  0  0  0  0  0  0
    1.3000   -3.2130   25.0520 C   0  0  0  0  0  0  0  0  0  0  0  0
    0.1070   -3.4990   25.9530 C   0  0  0  0  0  0  0  0  0  0  0  0
    0.2580   -2.8530   27.3100 C   0  0  0  0  0  0  0  0  0  0  0  0
    4.6950    4.2400   19.7470 O   0  0  0  0  0  0  0  0  0  0  0  0
  2  1  2  0
  3  1  1  0
 12  1  1  0
  4  3  1  0
  5  4  1  0
  6  5  1  0
  7  6  1  0
  8  7  1  0
  9  8  1  0
 10  9  1  0
 11 10  1  0
A    1
C1
A    2
O1
A    3
C2
A    4
C3
A    5
C4
A    6
C5
A    7
C6
A    8
C7
A    9
C8
A   10
C9
A   11
C10
A   12
O2
M  END
>  <Id>  (16) 
3U9Q_DKA_A_1

>  <ChainId>  (16) 
A

>  <AsymId>  (16) 
C

>  <SeqNum>  (16) 
1

>  <Name>  (16) 
DECANOIC ACID

>  <SystematicName>  (16) 
decanoic acid

>  <Synonyms>  (16) 


>  <Type>  (16) 
NON-POLYMER

>  <Formula>  (16) 
C10 H20 O2

>  <ObservedFormula>  (16) 
C10 O2

>  <MolecularWeight>  (16) 
172.265

>  <ModifiedDate>  (16) 
2011-06-04

>  <Parent>  (16) 


>  <OneLetterCode>  (16) 


>  <SubcomponentList>  (16) 


>  <AmbiguousFlag>  (16) 
N

>  <InsertionCode>  (16) 


>  <InstanceId>  (16) 
3U9Q_DKA_A_1

>  <ChemCompId>  (16) 
DKA

>  <PdbId>  (16) 
3U9Q

>  <ResidueNumber>  (16) 
1

>  <InChI>  (16) 
InChI=1S/C10H20O2/c1-2-3-4-5-6-7-8-9-10(11)12/h2-9H2,1H3,(H,11,12)

>  <InChIKey>  (16) 
GHVNFZFCNZKVNT-UHFFFAOYSA-N

>  <SMILES>  (16) 
CCCCCCCCCC(=O)O

>  <MissingHeavyAtoms>  (16) 
0

>  <Model>  (16) 
1

>  <AltIds>  (16) 


>  <pKI>  (16) 
4.38

>  <ChemblID>  (16) 
-

>  <standardized_canonical_smiles>  (16) 
CCCCCCCCCC(=O)O

$$$$
3FEJ_CTM_A_1
     RDKit          3D

 29 31  0  0  0  0  0  0  0  0999 V2000
    6.7330   24.1690   17.1050 N   0  0  0  0  0  0  0  0  0  0  0  0
    7.0120   24.4000   15.8520 C   0  0  0  0  0  0  0  0  0  0  0  0
    7.6150   26.0030   15.5000 S   0  0  0  0  0  0  0  0  0  0  0  0
    6.9720   25.2660   17.8680 C   0  0  0  0  0  0  0  0  0  0  0  0
    7.4530   26.3440   17.1970 C   0  0  0  0  0  0  0  0  0  0  0  0
   -1.2690   28.4770   20.0010 C   0  0  0  0  0  0  0  0  0  0  0  0
    2.4520   27.6830   20.4590 C   0  0  0  0  0  0  0  0  0  0  0  0
    1.0520   28.1220   20.7880 C   0  0  0  0  0  0  0  0  0  0  0  0
    6.8290   23.4120   14.7980 C   0  0  0  0  0  0  0  0  0  0  0  0
    3.3860   28.6040   19.9710 C   0  0  0  0  0  0  0  0  0  0  0  0
    0.1180   28.0780   19.5730 C   0  0  0  0  0  0  0  0  0  0  0  0
    4.6960   28.2030   19.7420 C   0  0  0  0  0  0  0  0  0  0  0  0
   -1.5900   29.7030   19.9690 O   0  0  0  0  0  0  0  0  0  0  0  0
    2.8340   26.3560   20.6780 C   0  0  0  0  0  0  0  0  0  0  0  0
    7.1460   23.7110   13.4670 C   0  0  0  0  0  0  0  0  0  0  0  0
    6.3110   22.1470   15.1080 C   0  0  0  0  0  0  0  0  0  0  0  0
    6.7030   25.2430   19.3420 C   0  0  0  0  0  0  0  0  0  0  0  0
    5.0730   26.8850   19.9860 C   0  0  0  0  0  0  0  0  0  0  0  0
    6.3890   26.5540   19.7850 O   0  0  0  0  0  0  0  0  0  0  0  0
   -2.0470   27.5760   20.4340 O   0  0  0  0  0  0  0  0  0  0  0  0
    6.4030   21.5220   12.7850 C   0  0  0  0  0  0  0  0  0  0  0  0
    4.1440   25.9470   20.4400 C   0  0  0  0  0  0  0  0  0  0  0  0
    6.9340   22.7730   12.4650 C   0  0  0  0  0  0  0  0  0  0  0  0
    6.0980   21.2070   14.1100 C   0  0  0  0  0  0  0  0  0  0  0  0
    6.1080   20.3430   11.5180 Cl  0  0  0  0  0  0  0  0  0  0  0  0
    0.5940   28.9380   18.5370 O   0  0  0  0  0  0  0  0  0  0  0  0
    3.0150   30.0380   19.7160 C   0  0  0  0  0  0  0  0  0  0  0  0
    0.1630   28.5100   17.2480 C   0  0  0  0  0  0  0  0  0  0  0  0
    0.7000   29.4520   16.1700 C   0  0  0  0  0  0  0  0  0  0  0  0
  2  1  2  0
  4  1  1  0
  3  2  1  0
  9  2  1  0
  5  3  1  0
  5  4  2  0
 17  4  1  0
 11  6  1  0
 13  6  2  0
 20  6  1  0
  8  7  1  0
 10  7  2  0
 14  7  1  0
 11  8  1  0
 15  9  2  0
 16  9  1  0
 12 10  1  0
 27 10  1  0
 26 11  1  0
 18 12  2  0
 22 14  2  0
 23 15  1  0
 24 16  2  0
 19 17  1  0
 19 18  1  0
 22 18  1  0
 23 21  2  0
 24 21  1  0
 25 21  1  0
 28 26  1  0
 29 28  1  0
A    1
N1
A    2
C2
A    3
S3
A    4
C4
A    5
C5
A    6
C6
A    7
C7
A    8
C8
A    9
C9
A   10
C10
A   11
C11
A   12
C12
A   13
O13
A   14
C14
A   15
C15
A   16
C16
A   17
C17
A   18
C18
A   19
O19
A   20
O20
A   21
C21
A   22
C22
A   23
C23
A   24
C24
A   25
CL25
A   26
O26
A   27
C27
A   28
C28
A   29
C29
M  END
>  <Id>  (17) 
3FEJ_CTM_A_1

>  <ChainId>  (17) 
A

>  <AsymId>  (17) 
C

>  <SeqNum>  (17) 
1

>  <Name>  (17) 
(2S)-3-(4-{[2-(4-chlorophenyl)-1,3-thiazol-4-yl]methoxy}-2-methylphenyl)-2-ethoxypropanoic acid

>  <SystematicName>  (17) 
(2S)-3-[4-[[2-(4-chlorophenyl)-1,3-thiazol-4-yl]methoxy]-2-methyl-phenyl]-2-ethoxy-propanoic acid

>  <Synonyms>  (17) 
3-{4-[2-(4-Chloro-phenyl)-thiazol-4-ylmethoxy]-2-methyl-phenyl}-2-(S)-ethoxy-propionic acid

>  <Type>  (17) 
NON-POLYMER

>  <Formula>  (17) 
C22 H22 Cl N O4 S

>  <ObservedFormula>  (17) 
C22 S Cl N O4

>  <MolecularWeight>  (17) 
431.932

>  <ModifiedDate>  (17) 
2011-06-04

>  <Parent>  (17) 


>  <OneLetterCode>  (17) 


>  <SubcomponentList>  (17) 


>  <AmbiguousFlag>  (17) 
N

>  <InsertionCode>  (17) 


>  <InstanceId>  (17) 
3FEJ_CTM_A_1

>  <ChemCompId>  (17) 
CTM

>  <PdbId>  (17) 
3FEJ

>  <ResidueNumber>  (17) 
1

>  <InChI>  (17) 
InChI=1S/C22H22ClNO4S/c1-3-27-20(22(25)26)11-16-6-9-19(10-14(16)2)28-12-18-13-29-21(24-18)15-4-7-17(23)8-5-15/h4-10,13,20H,3,11-12H2,1-2H3,(H,25,26)/t20-/m0/s1

>  <InChIKey>  (17) 
OTUKSARQRIIQDU-FQEVSTJZSA-N

>  <SMILES>  (17) 
CCO[C@@H](Cc1ccc(cc1C)OCc2csc(n2)c3ccc(cc3)Cl)C(=O)O

>  <MissingHeavyAtoms>  (17) 
0

>  <Model>  (17) 
1

>  <AltIds>  (17) 


>  <pKI>  (17) 
6.13

>  <ChemblID>  (17) 
-

>  <standardized_canonical_smiles>  (17) 
CCO[C@@H](Cc1ccc(OCc2csc(-c3ccc(Cl)cc3)n2)cc1C)C(=O)O

$$$$
2P4Y_C03_B_478
     RDKit          3D

 40 44  0  0  0  0  0  0  0  0999 V2000
   35.5530  -20.3630   36.5140 C   0  0  0  0  0  0  0  0  0  0  0  0
   35.1230  -21.5450   37.1260 C   0  0  0  0  0  0  0  0  0  0  0  0
   34.7450  -21.4820   38.6280 C   0  0  0  0  0  0  0  0  0  0  0  0
   34.8220  -20.3390   39.3520 C   0  0  0  0  0  0  0  0  0  0  0  0
   35.2640  -19.1410   38.7160 C   0  0  0  0  0  0  0  0  0  0  0  0
   35.6290  -19.1400   37.2970 C   0  0  0  0  0  0  0  0  0  0  0  0
   34.2850  -22.6110   39.3560 C   0  0  0  0  0  0  0  0  0  0  0  0
   34.0960  -22.0240   40.6240 C   0  0  0  0  0  0  0  0  0  0  0  0
   34.4160  -20.6290   40.6570 N   0  0  0  0  0  0  0  0  0  0  0  0
   34.0650  -24.0340   38.8790 C   0  0  0  0  0  0  0  0  0  0  0  0
   33.6010  -22.7630   41.8540 C   0  0  0  0  0  0  0  0  0  0  0  0
   34.3540  -19.6430   41.7820 C   0  0  0  0  0  0  0  0  0  0  0  0
   36.0350  -17.9250   36.7820 O   0  0  0  0  0  0  0  0  0  0  0  0
   35.1570  -17.0080   36.1870 C   0  0  0  0  0  0  0  0  0  0  0  0
   35.8870  -16.0890   35.6380 F   0  0  0  0  0  0  0  0  0  0  0  0
   34.3930  -16.4570   37.0980 F   0  0  0  0  0  0  0  0  0  0  0  0
   34.4220  -17.6040   35.2650 F   0  0  0  0  0  0  0  0  0  0  0  0
   35.6930  -19.3890   42.5170 C   0  0  0  0  0  0  0  0  0  0  0  0
   36.8240  -20.2830   42.3070 C   0  0  0  0  0  0  0  0  0  0  0  0
   38.0870  -20.0960   42.9560 C   0  0  0  0  0  0  0  0  0  0  0  0
   38.2510  -18.9770   43.8610 C   0  0  0  0  0  0  0  0  0  0  0  0
   37.1700  -18.0670   44.1020 C   0  0  0  0  0  0  0  0  0  0  0  0
   35.9050  -18.2620   43.4380 C   0  0  0  0  0  0  0  0  0  0  0  0
   34.6900  -17.1010   43.7890 Cl  0  0  0  0  0  0  0  0  0  0  0  0
   39.1190  -21.0300   42.6350 O   0  0  0  0  0  0  0  0  0  0  0  0
   39.6110  -22.0330   43.5290 C   0  0  0  0  0  0  0  0  0  0  0  0
   40.7330  -22.7690   42.7730 C   0  0  0  0  0  0  0  0  0  0  0  0
   38.5960  -23.1140   43.8820 C   0  0  0  0  0  0  0  0  0  0  0  0
   38.5120  -23.5820   44.9570 O   0  0  0  0  0  0  0  0  0  0  0  0
   37.8170  -23.4670   42.8260 O   0  0  0  0  0  0  0  0  0  0  0  0
   34.4690  -25.2390   39.3950 N   0  0  0  0  0  0  0  0  0  0  0  0
   34.0650  -26.2870   38.6420 O   0  0  0  0  0  0  0  0  0  0  0  0
   33.3570  -25.8310   37.5710 C   0  0  0  0  0  0  0  0  0  0  0  0
   33.3330  -24.4120   37.6950 C   0  0  0  0  0  0  0  0  0  0  0  0
   32.7410  -26.5240   36.5110 C   0  0  0  0  0  0  0  0  0  0  0  0
   32.0300  -25.7860   35.4630 C   0  0  0  0  0  0  0  0  0  0  0  0
   31.9650  -24.3530   35.5360 C   0  0  0  0  0  0  0  0  0  0  0  0
   32.5920  -23.6670   36.6130 C   0  0  0  0  0  0  0  0  0  0  0  0
   31.4550  -26.5590   34.4520 O   0  0  0  0  0  0  0  0  0  0  0  0
   32.3000  -27.1490   33.4880 C   0  0  0  0  0  0  0  0  0  0  0  0
  2  1  2  0
  6  1  1  0
  3  2  1  0
  4  3  2  0
  7  3  1  0
  5  4  1  0
  9  4  1  0
  6  5  2  0
 13  6  1  0
  8  7  2  0
 10  7  1  0
  9  8  1  0
 11  8  1  0
 12  9  1  0
 31 10  2  0
 34 10  1  0
 18 12  1  0
 14 13  1  0
 15 14  1  0
 16 14  1  0
 17 14  1  0
 19 18  2  0
 23 18  1  0
 20 19  1  0
 21 20  2  0
 25 20  1  0
 22 21  1  0
 23 22  2  0
 24 23  1  0
 26 25  1  0
 27 26  1  0
 28 26  1  0
 29 28  2  0
 30 28  1  0
 32 31  1  0
 33 32  1  0
 34 33  2  0
 35 33  1  0
 38 34  1  0
 36 35  2  0
 37 36  1  0
 39 36  1  0
 38 37  2  0
 40 39  1  0
A    1
C1
A    2
C2
A    3
C3
A    4
C4
A    5
C5
A    6
C6
A    7
C10
A    8
C11
A    9
N12
A   10
C13
A   11
C14
A   12
C18
A   13
O19
A   14
C20
A   15
F21
A   16
F22
A   17
F23
A   18
C24
A   19
C27
A   20
C28
A   21
C29
A   22
C30
A   23
C31
A   24
CL1
A   25
O36
A   26
C37
A   27
C38
A   28
C42
A   29
O44
A   30
O45
A   31
N46
A   32
O47
A   33
C48
A   34
C49
A   35
C50
A   36
C51
A   37
C52
A   38
C53
A   39
O57
A   40
C58
M  END
>  <Id>  (18) 
2P4Y_C03_B_478

>  <ChainId>  (18) 
B

>  <AsymId>  (18) 
E

>  <SeqNum>  (18) 
478

>  <Name>  (18) 
(2R)-2-(4-CHLORO-3-{[3-(6-METHOXY-1,2-BENZISOXAZOL-3-YL)-2-METHYL-6-(TRIFLUOROMETHOXY)-1H-INDOL-1-YL]METHYL}PHENOXY)PROPANOIC ACID

>  <SystematicName>  (18) 
(2R)-2-[4-chloro-3-[[3-(6-methoxy-1,2-benzoxazol-3-yl)-2-methyl-6-(trifluoromethoxy)indol-1-yl]methyl]phenoxy]propanoic acid

>  <Synonyms>  (18) 


>  <Type>  (18) 
NON-POLYMER

>  <Formula>  (18) 
C28 H22 Cl F3 N2 O6

>  <ObservedFormula>  (18) 
C28 F3 Cl N2 O6

>  <MolecularWeight>  (18) 
574.932

>  <ModifiedDate>  (18) 
2011-06-04

>  <Parent>  (18) 


>  <OneLetterCode>  (18) 


>  <SubcomponentList>  (18) 


>  <AmbiguousFlag>  (18) 


>  <InsertionCode>  (18) 


>  <InstanceId>  (18) 
2P4Y_C03_B_478

>  <ChemCompId>  (18) 
C03

>  <PdbId>  (18) 
2P4Y

>  <ResidueNumber>  (18) 
478

>  <InChI>  (18) 
InChI=1S/C28H22ClF3N2O6/c1-14-25(26-21-8-4-17(37-3)12-24(21)40-33-26)20-7-5-19(39-28(30,31)32)11-23(20)34(14)13-16-10-18(6-9-22(16)29)38-15(2)27(35)36/h4-12,15H,13H2,1-3H3,(H,35,36)/t15-/m1/s1

>  <InChIKey>  (18) 
SCDKVHCGNOYKFK-OAHLLOKOSA-N

>  <SMILES>  (18) 
Cc1c(c2ccc(cc2n1Cc3cc(ccc3Cl)O[C@H](C)C(=O)O)OC(F)(F)F)c4c5ccc(cc5on4)OC

>  <MissingHeavyAtoms>  (18) 
0

>  <Model>  (18) 
1

>  <AltIds>  (18) 


>  <pKI>  (18) 
9.0

>  <ChemblID>  (18) 
-

>  <standardized_canonical_smiles>  (18) 
COc1ccc2c(-c3c(C)n(Cc4cc(O[C@H](C)C(=O)O)ccc4Cl)c4cc(OC(F)(F)F)ccc34)noc2c1

$$$$
3T03_3T0_B_1
     RDKit          3D

 25 27  0  0  0  0  0  0  0  0999 V2000
   -9.3040   65.9310    6.4780 C   0  0  0  0  0  0  0  0  0  0  0  0
   -0.4640   60.1720    7.2400 C   0  0  0  0  0  0  0  0  0  0  0  0
   -5.7290   60.0240    1.6450 O   0  0  0  0  0  0  0  0  0  0  0  0
   -5.0980   64.5060    3.4520 O   0  0  0  0  0  0  0  0  0  0  0  0
  -12.9910   64.8140    0.8480 Br  0  0  0  0  0  0  0  0  0  0  0  0
   -7.8070   64.4850    3.3840 C   0  0  0  0  0  0  0  0  0  0  0  0
   -2.3850   61.6390    6.2360 C   0  0  0  0  0  0  0  0  0  0  0  0
   -0.9290   60.2110    4.6920 C   0  0  0  0  0  0  0  0  0  0  0  0
  -12.0050   65.3390    3.5510 C   0  0  0  0  0  0  0  0  0  0  0  0
   -3.2230   62.1420    5.0330 C   0  0  0  0  0  0  0  0  0  0  0  0
   -1.7210   60.6830    3.5390 C   0  0  0  0  0  0  0  0  0  0  0  0
  -11.0650   65.4650    4.6620 C   0  0  0  0  0  0  0  0  0  0  0  0
  -10.1620   64.5510    1.8570 C   0  0  0  0  0  0  0  0  0  0  0  0
   -3.6230   62.0940    2.4450 C   0  0  0  0  0  0  0  0  0  0  0  0
   -8.8160   65.2350    5.3920 O   0  0  0  0  0  0  0  0  0  0  0  0
   -7.6590   61.6670    2.4210 S   0  0  0  0  0  0  0  0  0  0  0  0
   -1.2640   60.6640    6.0790 C   0  0  0  0  0  0  0  0  0  0  0  0
  -11.6040   64.9200    2.1940 C   0  0  0  0  0  0  0  0  0  0  0  0
   -2.8730   61.6450    3.6820 C   0  0  0  0  0  0  0  0  0  0  0  0
   -9.2440   64.6880    3.0580 C   0  0  0  0  0  0  0  0  0  0  0  0
   -9.7030   65.1070    4.3960 C   0  0  0  0  0  0  0  0  0  0  0  0
   -5.9980   61.1200    2.0930 C   0  0  0  0  0  0  0  0  0  0  0  0
   -5.6720   63.3490    3.0170 C   0  0  0  0  0  0  0  0  0  0  0  0
   -7.1440   63.2350    2.9910 C   0  0  0  0  0  0  0  0  0  0  0  0
   -5.0830   62.1450    2.5050 N   0  0  0  0  0  0  0  0  0  0  0  0
 15  1  1  0
 17  2  1  0
 22  3  2  0
 23  4  2  0
 18  5  1  0
 20  6  1  0
 24  6  2  0
 10  7  2  0
 17  7  1  0
 11  8  1  0
 17  8  2  0
 12  9  2  0
 18  9  1  0
 19 10  1  0
 19 11  2  0
 21 12  1  0
 18 13  2  0
 20 13  1  0
 19 14  1  0
 25 14  1  0
 21 15  1  0
 22 16  1  0
 24 16  1  0
 21 20  2  0
 25 22  1  0
 24 23  1  0
 25 23  1  0
A    1
CAA
A    2
CAB
A    3
OAC
A    4
OAD
A    5
BRAE
A    6
CAF
A    7
CAG
A    8
CAH
A    9
CAI
A   10
CAJ
A   11
CAK
A   12
CAL
A   13
CAM
A   14
CAN
A   15
OAO
A   16
SAP
A   17
CAQ
A   18
CAR
A   19
CAS
A   20
CAT
A   21
CAU
A   22
CAV
A   23
CAW
A   24
CAX
A   25
NAY
M  END
>  <Id>  (19) 
3T03_3T0_B_1

>  <ChainId>  (19) 
B

>  <AsymId>  (19) 
F

>  <SeqNum>  (19) 
1

>  <Name>  (19) 
(5Z)-5-(5-bromo-2-methoxybenzylidene)-3-(4-methylbenzyl)-1,3-thiazolidine-2,4-dione

>  <SystematicName>  (19) 
(5Z)-5-[(5-bromanyl-2-methoxy-phenyl)methylidene]-3-[(4-methylphenyl)methyl]-1,3-thiazolidine-2,4-dione

>  <Synonyms>  (19) 


>  <Type>  (19) 
NON-POLYMER

>  <Formula>  (19) 
C19 H16 Br N O3 S

>  <ObservedFormula>  (19) 
Br C19 S N O3

>  <MolecularWeight>  (19) 
418.304

>  <ModifiedDate>  (19) 
2012-05-18

>  <Parent>  (19) 


>  <OneLetterCode>  (19) 


>  <SubcomponentList>  (19) 


>  <AmbiguousFlag>  (19) 
N

>  <InsertionCode>  (19) 


>  <InstanceId>  (19) 
3T03_3T0_B_1

>  <ChemCompId>  (19) 
3T0

>  <PdbId>  (19) 
3T03

>  <ResidueNumber>  (19) 
1

>  <InChI>  (19) 
InChI=1S/C19H16BrNO3S/c1-12-3-5-13(6-4-12)11-21-18(22)17(25-19(21)23)10-14-9-15(20)7-8-16(14)24-2/h3-10H,11H2,1-2H3/b17-10-

>  <InChIKey>  (19) 
AMLZLORVKZAHOH-YVLHZVERSA-N

>  <SMILES>  (19) 
Cc1ccc(cc1)CN2C(=O)/C(=C/c3cc(ccc3OC)Br)/SC2=O

>  <MissingHeavyAtoms>  (19) 
0

>  <Model>  (19) 
1

>  <AltIds>  (19) 


>  <pKI>  (19) 
6.8

>  <ChemblID>  (19) 
-

>  <standardized_canonical_smiles>  (19) 
COc1ccc(Br)cc1/C=C1\SC(=O)N(Cc2ccc(C)cc2)C1=O

$$$$
2YFE_YFE_B_999
     RDKit          3D

 25 26  0  0  0  0  0  0  0  0999 V2000
   -4.2240   -4.5540   15.6440 C   0  0  0  0  0  0  0  0  0  0  0  0
   -3.7550   -5.9890   15.4170 C   0  0  0  0  0  0  0  0  0  0  0  0
   -4.3950   -6.8170   14.2990 C   0  0  0  0  0  0  0  0  0  0  0  0
   -2.7810   -6.5650   16.2330 C   0  0  0  0  0  0  0  0  0  0  0  0
   -2.2970   -7.8430   16.0120 C   0  0  0  0  0  0  0  0  0  0  0  0
   -2.0290   -8.6880   17.2600 C   0  0  0  0  0  0  0  0  0  0  0  0
   -1.9310   -8.2170   18.5800 C   0  0  0  0  0  0  0  0  0  0  0  0
   -1.6750   -9.1110   19.6280 C   0  0  0  0  0  0  0  0  0  0  0  0
   -2.0830   -6.8790   18.8420 O   0  0  0  0  0  0  0  0  0  0  0  0
   -1.7600   -6.5040   20.2000 C   0  0  0  0  0  0  0  0  0  0  0  0
   -1.8630  -10.0450   17.0370 C   0  0  0  0  0  0  0  0  0  0  0  0
   -1.9500  -10.5400   15.7670 O   0  0  0  0  0  0  0  0  0  0  0  0
   -1.6090  -10.9240   18.0720 C   0  0  0  0  0  0  0  0  0  0  0  0
   -1.4470  -12.3900   17.7010 C   0  0  0  0  0  0  0  0  0  0  0  0
   -1.7490  -12.7370   16.5390 O   0  0  0  0  0  0  0  0  0  0  0  0
   -0.9980  -13.1590   18.5660 O   0  0  0  0  0  0  0  0  0  0  0  0
   -1.5180  -10.4760   19.3860 C   0  0  0  0  0  0  0  0  0  0  0  0
   -1.2290  -11.4100   20.5620 C   0  0  0  0  0  0  0  0  0  0  0  0
    0.1950  -11.9540   20.3980 C   0  0  0  0  0  0  0  0  0  0  0  0
    0.5660  -12.8940   21.5290 C   0  0  0  0  0  0  0  0  0  0  0  0
    0.7450  -12.4010   22.8060 C   0  0  0  0  0  0  0  0  0  0  0  0
    1.0930  -13.2520   23.8440 C   0  0  0  0  0  0  0  0  0  0  0  0
    1.2450  -14.6020   23.6050 C   0  0  0  0  0  0  0  0  0  0  0  0
    1.0680  -15.1100   22.3210 C   0  0  0  0  0  0  0  0  0  0  0  0
    0.7310  -14.2530   21.2790 C   0  0  0  0  0  0  0  0  0  0  0  0
  2  1  1  0
  3  2  1  0
  4  2  2  3
  5  4  1  0
  6  5  1  0
  7  6  2  0
 11  6  1  0
  8  7  1  0
  9  7  1  0
 17  8  2  0
 10  9  1  0
 12 11  1  0
 13 11  2  0
 14 13  1  0
 17 13  1  0
 15 14  1  0
 16 14  2  0
 18 17  1  0
 19 18  1  0
 20 19  1  0
 21 20  2  0
 25 20  1  0
 22 21  1  0
 23 22  2  0
 24 23  1  0
 25 24  2  0
A    1
CAB
A    2
CAR
A    3
CAC
A    4
CAG
A    5
CAN
A    6
CAX
A    7
CAW
A    8
CAM
A    9
OAQ
A   10
CAA
A   11
CAU
A   12
OAF
A   13
CAY
A   14
CAS
A   15
OAE
A   16
OAD
A   17
CAV
A   18
CAP
A   19
CAO
A   20
CAT
A   21
CAK
A   22
CAI
A   23
CAH
A   24
CAJ
A   25
CAL
M  END
>  <Id>  (20) 
2YFE_YFE_B_999

>  <ChainId>  (20) 
B

>  <AsymId>  (20) 
D

>  <SeqNum>  (20) 
999

>  <Name>  (20) 
Amorfrutin 1

>  <SystematicName>  (20) 
2-hydroxy-4-methoxy-3-(3-methylbut-2-enyl)-6-phenethyl-benzoic acid

>  <Synonyms>  (20) 


>  <Type>  (20) 
non-polymer

>  <Formula>  (20) 
C21 H24 O4

>  <ObservedFormula>  (20) 
C21 O4

>  <MolecularWeight>  (20) 
340.413

>  <ModifiedDate>  (20) 
2012-04-06

>  <Parent>  (20) 


>  <OneLetterCode>  (20) 


>  <SubcomponentList>  (20) 


>  <AmbiguousFlag>  (20) 
N

>  <InsertionCode>  (20) 


>  <InstanceId>  (20) 
2YFE_YFE_B_999

>  <ChemCompId>  (20) 
YFE

>  <PdbId>  (20) 
2YFE

>  <ResidueNumber>  (20) 
999

>  <InChI>  (20) 
InChI=1S/C21H24O4/c1-14(2)9-12-17-18(25-3)13-16(19(20(17)22)21(23)24)11-10-15-7-5-4-6-8-15/h4-9,13,22H,10-12H2,1-3H3,(H,23,24)

>  <InChIKey>  (20) 
CTNFTPUIYFUXBE-UHFFFAOYSA-N

>  <SMILES>  (20) 
CC(=CCc1c(cc(c(c1O)C(=O)O)CCc2ccccc2)OC)C

>  <MissingHeavyAtoms>  (20) 
0

>  <Model>  (20) 
1

>  <AltIds>  (20) 


>  <pKI>  (20) 
6.63

>  <ChemblID>  (20) 
-

>  <standardized_canonical_smiles>  (20) 
COc1cc(CCc2ccccc2)c(C(=O)O)c(O)c1CC=C(C)C

$$$$
3LMP_CEK_A_23
     RDKit          3D

 36 40  0  0  0  0  0  0  0  0999 V2000
   15.2380   51.2990   66.9070 C   0  0  0  0  0  0  0  0  0  0  0  0
   16.1160   51.2530   65.6560 C   0  0  0  0  0  0  0  0  0  0  0  0
   17.2390   51.7540   65.6560 O   0  0  0  0  0  0  0  0  0  0  0  0
   15.5580   50.5930   64.4030 C   0  0  0  0  0  0  0  0  0  0  0  0
   14.6580   49.3320   64.5750 C   0  0  0  0  0  0  0  0  0  0  0  0
   14.6510   48.3690   63.3260 C   0  0  0  0  0  0  0  0  0  0  0  0
   14.7470   49.2040   62.0370 C   0  0  0  0  0  0  0  0  0  0  0  0
   15.2970   50.4520   62.0030 C   0  0  0  0  0  0  0  0  0  0  0  0
   15.8010   51.0400   63.1300 C   0  0  0  0  0  0  0  0  0  0  0  0
   14.2220   48.5820   60.9340 O   0  0  0  0  0  0  0  0  0  0  0  0
   13.2080   47.8180   61.5070 C   0  0  0  0  0  0  0  0  0  0  0  0
   13.3760   47.6470   62.8830 C   0  0  0  0  0  0  0  0  0  0  0  0
   12.1030   47.2470   60.8360 C   0  0  0  0  0  0  0  0  0  0  0  0
   11.1650   46.4950   61.5950 C   0  0  0  0  0  0  0  0  0  0  0  0
   11.3580   46.3380   62.9860 C   0  0  0  0  0  0  0  0  0  0  0  0
   12.4550   46.9100   63.6240 C   0  0  0  0  0  0  0  0  0  0  0  0
   15.8420   47.3840   63.4340 C   0  0  0  0  0  0  0  0  0  0  0  0
   14.0110   49.0930   65.5930 O   0  0  0  0  0  0  0  0  0  0  0  0
   16.5890   52.1440   62.9430 O   0  0  0  0  0  0  0  0  0  0  0  0
   12.6070   46.7340   64.9740 O   0  0  0  0  0  0  0  0  0  0  0  0
   10.0770   45.9370   60.9140 O   0  0  0  0  0  0  0  0  0  0  0  0
    9.1190   45.0120   61.4890 C   0  0  0  0  0  0  0  0  0  0  0  0
   11.9920   47.4800   59.3280 C   0  0  0  0  0  0  0  0  0  0  0  0
   12.9970   47.7110   58.6580 O   0  0  0  0  0  0  0  0  0  0  0  0
   10.8290   47.4120   58.6520 N   0  0  0  0  0  0  0  0  0  0  0  0
   10.4680   48.2180   57.4680 C   0  0  0  0  0  0  0  0  0  0  0  0
    8.9520   48.5290   57.3970 C   0  0  0  0  0  0  0  0  0  0  0  0
    7.9170   47.5620   57.5500 C   0  0  0  0  0  0  0  0  0  0  0  0
    6.5400   47.9910   57.4640 C   0  0  0  0  0  0  0  0  0  0  0  0
    6.2490   49.3350   57.2340 C   0  0  0  0  0  0  0  0  0  0  0  0
    7.2760   50.2650   57.0870 C   0  0  0  0  0  0  0  0  0  0  0  0
    8.6080   49.8690   57.1680 C   0  0  0  0  0  0  0  0  0  0  0  0
    5.5070   47.0510   57.6130 C   0  0  0  0  0  0  0  0  0  0  0  0
    5.8090   45.7110   57.8430 C   0  0  0  0  0  0  0  0  0  0  0  0
    7.1330   45.2880   57.9270 C   0  0  0  0  0  0  0  0  0  0  0  0
    8.1760   46.2010   57.7840 C   0  0  0  0  0  0  0  0  0  0  0  0
  2  1  1  0
  3  2  2  0
  4  2  1  0
  5  4  1  0
  9  4  2  0
  6  5  1  0
 18  5  2  0
  7  6  1  0
 12  6  1  0
 17  6  1  0
  8  7  2  0
 10  7  1  0
  9  8  1  0
 19  9  1  0
 11 10  1  0
 12 11  2  0
 13 11  1  0
 16 12  1  0
 14 13  2  0
 23 13  1  0
 15 14  1  0
 21 14  1  0
 16 15  2  0
 20 16  1  0
 22 21  1  0
 24 23  2  0
 25 23  1  0
 26 25  1  0
 27 26  1  0
 28 27  2  0
 32 27  1  0
 29 28  1  0
 36 28  1  0
 30 29  2  0
 33 29  1  0
 31 30  1  0
 32 31  2  0
 34 33  2  0
 35 34  1  0
 36 35  2  0
A    1
C1
A    2
C2
A    3
O3
A    4
C4
A    5
C5
A    6
C6
A    7
C7
A    8
C8
A    9
C9
A   10
O10
A   11
C11
A   12
C12
A   13
C13
A   14
C14
A   15
C15
A   16
C16
A   17
C17
A   18
O18
A   19
O19
A   20
O20
A   21
O21
A   22
C22
A   23
C23
A   24
O24
A   25
N25
A   26
C26
A   27
C27
A   28
C28
A   29
C29
A   30
C30
A   31
C31
A   32
C32
A   33
C33
A   34
C34
A   35
C35
A   36
C36
M  END
>  <Id>  (21) 
3LMP_CEK_A_23

>  <ChainId>  (21) 
A

>  <AsymId>  (21) 
C

>  <SeqNum>  (21) 
23

>  <Name>  (21) 
(9aS)-8-acetyl-1,7-dihydroxy-3-methoxy-9a-methyl-N-(1-naphthylmethyl)-9-oxo-9,9a-dihydrodibenzo[b,d]furan-4-carboxamide

>  <SystematicName>  (21) 
(9aS)-8-ethanoyl-1,7-dihydroxy-3-methoxy-9a-methyl-N-(naphthalen-1-ylmethyl)-9-oxo-dibenzofuran-4-carboxamide

>  <Synonyms>  (21) 
(9aS)-8-acetyl-1,7-dihydroxy-3-methoxy-9a-methyl-N-(naphthalen-1-ylmethyl)-9-oxo-9,9a-dihydrodibenzo[b,d]furan-4-carboxamide

>  <Type>  (21) 
NON-POLYMER

>  <Formula>  (21) 
C28 H23 N O7

>  <ObservedFormula>  (21) 
C28 N O7

>  <MolecularWeight>  (21) 
485.485

>  <ModifiedDate>  (21) 
2011-06-04

>  <Parent>  (21) 


>  <OneLetterCode>  (21) 


>  <SubcomponentList>  (21) 


>  <AmbiguousFlag>  (21) 
N

>  <InsertionCode>  (21) 


>  <InstanceId>  (21) 
3LMP_CEK_A_23

>  <ChemCompId>  (21) 
CEK

>  <PdbId>  (21) 
3LMP

>  <ResidueNumber>  (21) 
23

>  <InChI>  (21) 
InChI=1S/C28H23NO7/c1-14(30)22-18(31)12-21-28(2,26(22)33)24-19(32)11-20(35-3)23(25(24)36-21)27(34)29-13-16-9-6-8-15-7-4-5-10-17(15)16/h4-12,31-32H,13H2,1-3H3,(H,29,34)/t28-/m1/s1

>  <InChIKey>  (21) 
GHOGOLYMMHFNIT-MUUNZHRXSA-N

>  <SMILES>  (21) 
CC(=O)C1=C(C=C2[C@@](C1=O)(c3c(cc(c(c3O2)C(=O)NCc4cccc5c4cccc5)OC)O)C)O

>  <MissingHeavyAtoms>  (21) 
0

>  <Model>  (21) 
1

>  <AltIds>  (21) 


>  <pKI>  (21) 
7.85

>  <ChemblID>  (21) 
-

>  <standardized_canonical_smiles>  (21) 
COc1cc(O)c2c(c1C(=O)NCc1cccc3ccccc13)OC1=CC(O)=C(C(C)=O)C(=O)[C@]12C

$$$$
3FUR_Z12_A_1
     RDKit          3D

 31 34  0  0  0  0  0  0  0  0999 V2000
    2.1080    5.0210   27.2770 Cl  0  0  0  0  0  0  0  0  0  0  0  0
    3.7200    4.9400   28.0550 C   0  0  0  0  0  0  0  0  0  0  0  0
    3.6880    4.9240   29.4520 C   0  0  0  0  0  0  0  0  0  0  0  0
    4.8650    4.8410   30.1890 C   0  0  0  0  0  0  0  0  0  0  0  0
    4.7320    4.8240   31.9820 Cl  0  0  0  0  0  0  0  0  0  0  0  0
    6.0920    4.7980   29.5130 C   0  0  0  0  0  0  0  0  0  0  0  0
    6.1210    4.8310   28.1070 C   0  0  0  0  0  0  0  0  0  0  0  0
    4.9390    4.8990   27.3460 C   0  0  0  0  0  0  0  0  0  0  0  0
    5.0330    4.8850   25.7120 S   0  0  0  0  0  0  0  0  0  0  0  0
    4.2050    3.8090   25.2180 O   0  0  0  0  0  0  0  0  0  0  0  0
    6.4030    4.6910   25.3230 O   0  0  0  0  0  0  0  0  0  0  0  0
    4.4560    6.2160   25.0500 N   0  0  0  0  0  0  0  0  0  0  0  0
    4.9750    7.4640   25.1130 C   0  0  0  0  0  0  0  0  0  0  0  0
    4.1680    8.4970   24.6460 C   0  0  0  0  0  0  0  0  0  0  0  0
    4.6280    9.7950   24.6660 C   0  0  0  0  0  0  0  0  0  0  0  0
    3.5620   11.0820   24.0410 Cl  0  0  0  0  0  0  0  0  0  0  0  0
    5.8880   10.0820   25.1740 C   0  0  0  0  0  0  0  0  0  0  0  0
    6.6860    9.0610   25.6370 C   0  0  0  0  0  0  0  0  0  0  0  0
    8.2940    9.4900   26.2750 Cl  0  0  0  0  0  0  0  0  0  0  0  0
    6.2420    7.7410   25.6070 C   0  0  0  0  0  0  0  0  0  0  0  0
    6.3780   11.3610   25.2170 O   0  0  0  0  0  0  0  0  0  0  0  0
    6.3470   12.1650   26.3470 C   0  0  0  0  0  0  0  0  0  0  0  0
    6.1810   11.6570   27.6440 C   0  0  0  0  0  0  0  0  0  0  0  0
    6.1820   12.5630   28.7240 C   0  0  0  0  0  0  0  0  0  0  0  0
    6.0270   12.1070   30.0290 C   0  0  0  0  0  0  0  0  0  0  0  0
    6.5120   13.5400   26.1820 C   0  0  0  0  0  0  0  0  0  0  0  0
    6.5030   14.3810   27.2240 N   0  0  0  0  0  0  0  0  0  0  0  0
    6.3420   13.9330   28.4850 C   0  0  0  0  0  0  0  0  0  0  0  0
    6.3440   14.8480   29.5370 C   0  0  0  0  0  0  0  0  0  0  0  0
    6.1800   14.3840   30.8330 C   0  0  0  0  0  0  0  0  0  0  0  0
    6.0270   13.0150   31.0820 C   0  0  0  0  0  0  0  0  0  0  0  0
  2  1  1  0
  3  2  2  0
  8  2  1  0
  4  3  1  0
  5  4  1  0
  6  4  2  0
  7  6  1  0
  8  7  2  0
  9  8  1  0
 10  9  2  0
 11  9  2  0
 12  9  1  0
 13 12  1  0
 14 13  2  0
 20 13  1  0
 15 14  1  0
 16 15  1  0
 17 15  2  0
 18 17  1  0
 21 17  1  0
 19 18  1  0
 20 18  2  0
 22 21  1  0
 23 22  2  0
 26 22  1  0
 24 23  1  0
 25 24  2  0
 28 24  1  0
 31 25  1  0
 27 26  2  0
 28 27  1  0
 29 28  2  0
 30 29  1  0
 31 30  2  0
A    1
CL32
A    2
C31
A    3
C30
A    4
C28
A    5
CL29
A    6
C27
A    7
C26
A    8
C25
A    9
S20
A   10
O21
A   11
O22
A   12
N23
A   13
C13
A   14
C14
A   15
C15
A   16
CL16
A   17
C17
A   18
C18
A   19
CL19
A   20
C12
A   21
O11
A   22
C8
A   23
C7
A   24
C6
A   25
C1
A   26
C9
A   27
N10
A   28
C5
A   29
C4
A   30
C3
A   31
C2
M  END
>  <Id>  (22) 
3FUR_Z12_A_1

>  <ChainId>  (22) 
A

>  <AsymId>  (22) 
C

>  <SeqNum>  (22) 
1

>  <Name>  (22) 
2,4-dichloro-N-[3,5-dichloro-4-(quinolin-3-yloxy)phenyl]benzenesulfonamide

>  <SystematicName>  (22) 
2,4-dichloro-N-(3,5-dichloro-4-quinolin-3-yloxy-phenyl)benzenesulfonamide

>  <Synonyms>  (22) 


>  <Type>  (22) 
NON-POLYMER

>  <Formula>  (22) 
C21 H12 Cl4 N2 O3 S

>  <ObservedFormula>  (22) 
C21 S Cl4 N2 O3

>  <MolecularWeight>  (22) 
514.209

>  <ModifiedDate>  (22) 
2011-06-04

>  <Parent>  (22) 


>  <OneLetterCode>  (22) 


>  <SubcomponentList>  (22) 


>  <AmbiguousFlag>  (22) 
N

>  <InsertionCode>  (22) 


>  <InstanceId>  (22) 
3FUR_Z12_A_1

>  <ChemCompId>  (22) 
Z12

>  <PdbId>  (22) 
3FUR

>  <ResidueNumber>  (22) 
1

>  <InChI>  (22) 
InChI=1S/C21H12Cl4N2O3S/c22-13-5-6-20(16(23)8-13)31(28,29)27-14-9-17(24)21(18(25)10-14)30-15-7-12-3-1-2-4-19(12)26-11-15/h1-11,27H

>  <InChIKey>  (22) 
NMRWDFUZLLQSBN-UHFFFAOYSA-N

>  <SMILES>  (22) 
c1ccc2c(c1)cc(cn2)Oc3c(cc(cc3Cl)NS(=O)(=O)c4ccc(cc4Cl)Cl)Cl

>  <MissingHeavyAtoms>  (22) 
0

>  <Model>  (22) 
1

>  <AltIds>  (22) 


>  <pKI>  (22) 
8.0

>  <ChemblID>  (22) 
-

>  <standardized_canonical_smiles>  (22) 
O=S(=O)(Nc1cc(Cl)c(Oc2cnc3ccccc3c2)c(Cl)c1)c1ccc(Cl)cc1Cl

$$$$
