1KAV_FEP_A_301
     RDKit          3D

 30 31  0  0  0  0  0  0  0  0999 V2000
   32.5650   10.3760   90.1860 C   0  0  0  0  0  0  0  0  0  0  0  0
   33.9230   10.1120   90.0900 C   0  0  0  0  0  0  0  0  0  0  0  0
   34.6260    9.8850   91.2700 C   0  0  0  0  0  0  0  0  0  0  0  0
   34.6670   10.8420   92.2790 C   0  0  0  0  0  0  0  0  0  0  0  0
   28.4710   10.8170   86.6840 C   0  0  0  0  0  0  0  0  0  0  0  0
   31.7960   10.6300   89.0710 C   0  0  0  0  0  0  0  0  0  0  0  0
   31.4330    9.5500   88.2640 C   0  0  0  0  0  0  0  0  0  0  0  0
   30.2870    9.5970   87.4770 C   0  0  0  0  0  0  0  0  0  0  0  0
   29.4750   10.7270   87.4810 C   0  0  0  0  0  0  0  0  0  0  0  0
   29.8460   11.8130   88.2870 C   0  0  0  0  0  0  0  0  0  0  0  0
   30.9980   11.7750   89.0810 C   0  0  0  0  0  0  0  0  0  0  0  0
   37.6370   10.7390   96.8570 C   0  0  0  0  0  0  0  0  0  0  0  0
   35.3940   10.6190   93.4500 C   0  0  0  0  0  0  0  0  0  0  0  0
   34.8100   10.9380   94.6780 C   0  0  0  0  0  0  0  0  0  0  0  0
   35.5840   11.0110   95.8350 C   0  0  0  0  0  0  0  0  0  0  0  0
   36.9590   10.7640   95.7790 C   0  0  0  0  0  0  0  0  0  0  0  0
   37.5560   10.4390   94.5320 C   0  0  0  0  0  0  0  0  0  0  0  0
   36.7730   10.3700   93.3800 C   0  0  0  0  0  0  0  0  0  0  0  0
   28.0620    9.3480   86.4140 F   0  0  0  0  0  0  0  0  0  0  0  0
   27.6310   11.3010   87.2900 F   0  0  0  0  0  0  0  0  0  0  0  0
   28.4030   11.4170   84.8880 P   0  0  0  0  0  0  0  0  0  0  0  0
   28.8130   12.9460   84.8810 O   0  0  0  0  0  0  0  0  0  0  0  0
   26.9400   11.2010   84.2660 O   0  0  0  0  0  0  0  0  0  0  0  0
   29.4600   10.5550   84.0510 O   0  0  0  0  0  0  0  0  0  0  0  0
   37.7090    9.2310   97.1990 F   0  0  0  0  0  0  0  0  0  0  0  0
   38.6740   11.0880   96.5750 F   0  0  0  0  0  0  0  0  0  0  0  0
   37.2060   11.3690   98.6150 P   0  0  0  0  0  0  0  0  0  0  0  0
   37.1810   12.9950   98.6010 O   0  0  0  0  0  0  0  0  0  0  0  0
   38.3370   10.8650   99.6690 O   0  0  0  0  0  0  0  0  0  0  0  0
   35.7490   10.8080   99.0550 O   0  0  0  0  0  0  0  0  0  0  0  0
  2  1  1  0
  6  1  1  0
  3  2  1  0
  4  3  1  0
 13  4  1  0
  9  5  1  0
 19  5  1  0
 20  5  1  0
 21  5  1  0
  7  6  2  0
 11  6  1  0
  8  7  1  0
  9  8  2  0
 10  9  1  0
 11 10  2  0
 16 12  1  0
 25 12  1  0
 26 12  1  0
 27 12  1  0
 14 13  2  0
 18 13  1  0
 15 14  1  0
 16 15  2  0
 17 16  1  0
 18 17  2  0
 22 21  2  0
 23 21  1  0
 24 21  1  0
 28 27  2  0
 29 27  1  0
 30 27  1  0
A    1
C1
A    2
C2
A    3
C3
A    4
C4
A    5
C5
A    6
C6
A    7
C7
A    8
C8
A    9
C9
A   10
C10
A   11
C11
A   12
C12
A   13
C13
A   14
C14
A   15
C15
A   16
C16
A   17
C17
A   18
C18
A   19
F1
A   20
F2
A   21
P1
A   22
OP1
A   23
OP2
A   24
OP3
A   25
F3
A   26
F4
A   27
P2
A   28
OP4
A   29
OP5
A   30
OP6
M  END
>  <Id>  (1) 
1KAV_FEP_A_301

>  <ChainId>  (1) 
A

>  <AsymId>  (1) 
B

>  <SeqNum>  (1) 
301

>  <Name>  (1) 
[(4-{4-[4-(DIFLUORO-PHOSPHONO-METHYL)-PHENYL]-BUTYL}-PHENYL)-DIFLUORO-METHYL]-PHOSPHONIC ACID

>  <SystematicName>  (1) 
[[4-[4-[4-(difluoro-phosphono-methyl)phenyl]butyl]phenyl]-difluoro-methyl]phosphonic acid

>  <Synonyms>  (1) 


>  <Type>  (1) 
NON-POLYMER

>  <Formula>  (1) 
C18 H20 F4 O6 P2

>  <ObservedFormula>  (1) 
P2 C18 F4 O6

>  <MolecularWeight>  (1) 
470.289

>  <ModifiedDate>  (1) 
2011-06-04

>  <Parent>  (1) 


>  <OneLetterCode>  (1) 


>  <SubcomponentList>  (1) 


>  <AmbiguousFlag>  (1) 
N

>  <InsertionCode>  (1) 


>  <InstanceId>  (1) 
1KAV_FEP_A_301

>  <ChemCompId>  (1) 
FEP

>  <PdbId>  (1) 
1KAV

>  <ResidueNumber>  (1) 
301

>  <InChI>  (1) 
InChI=1S/C18H20F4O6P2/c19-17(20,29(23,24)25)15-9-5-13(6-10-15)3-1-2-4-14-7-11-16(12-8-14)18(21,22)30(26,27)28/h5-12H,1-4H2,(H2,23,24,25)(H2,26,27,28)

>  <InChIKey>  (1) 
SRHSAABKYJDBDV-UHFFFAOYSA-N

>  <SMILES>  (1) 
c1cc(ccc1CCCCc2ccc(cc2)C(F)(F)P(=O)(O)O)C(F)(F)P(=O)(O)O

>  <MissingHeavyAtoms>  (1) 
0

>  <Model>  (1) 
1

>  <AltIds>  (1) 


>  <pKI>  (1) 
5.82

>  <ChemblID>  (1) 
CHEMBL1161222

>  <standardized_canonical_smiles>  (1) 
O=P(O)(O)C(F)(F)c1ccc(CCCCc2ccc(C(F)(F)P(=O)(O)O)cc2)cc1

$$$$
1KAK_FNP_A_301
     RDKit          3D

 24 25  0  0  0  0  0  0  0  0999 V2000
   24.3900   19.7530    2.6170 C   0  0  0  0  0  0  0  0  0  0  0  0
   25.6650   24.4690   -0.9010 C   0  0  0  0  0  0  0  0  0  0  0  0
   24.9950   25.3620   -0.0790 C   0  0  0  0  0  0  0  0  0  0  0  0
   24.2770   24.9530    1.0290 C   0  0  0  0  0  0  0  0  0  0  0  0
   24.2100   23.5910    1.3590 C   0  0  0  0  0  0  0  0  0  0  0  0
   23.4860   23.1550    2.4800 C   0  0  0  0  0  0  0  0  0  0  0  0
   23.4310   21.8190    2.7900 C   0  0  0  0  0  0  0  0  0  0  0  0
   24.0700   20.8850    2.0330 C   0  0  0  0  0  0  0  0  0  0  0  0
   24.8090   21.2850    0.8900 C   0  0  0  0  0  0  0  0  0  0  0  0
   24.8810   22.6450    0.5480 C   0  0  0  0  0  0  0  0  0  0  0  0
   25.6000   23.0980   -0.5750 C   0  0  0  0  0  0  0  0  0  0  0  0
   26.0350   24.8820   -2.1030 C   0  0  0  0  0  0  0  0  0  0  0  0
   24.4480   18.6470    1.6530 F   0  0  0  0  0  0  0  0  0  0  0  0
   25.5390   19.8510    3.2220 F   0  0  0  0  0  0  0  0  0  0  0  0
   23.1690   18.7770    3.6410 P   0  0  0  0  0  0  0  0  0  0  0  0
   21.9600   19.5730    3.9280 O   0  0  0  0  0  0  0  0  0  0  0  0
   23.7820   18.3720    4.9380 O   0  0  0  0  0  0  0  0  0  0  0  0
   22.7350   17.5330    2.9410 O   0  0  0  0  0  0  0  0  0  0  0  0
   25.0570   25.8290   -2.6910 F   0  0  0  0  0  0  0  0  0  0  0  0
   26.2180   23.8890   -2.9310 F   0  0  0  0  0  0  0  0  0  0  0  0
   27.3090   26.2060   -2.3260 P   0  0  0  0  0  0  0  0  0  0  0  0
   27.0810   27.3110   -1.3590 O   0  0  0  0  0  0  0  0  0  0  0  0
   27.2460   26.7780   -3.6940 O   0  0  0  0  0  0  0  0  0  0  0  0
   28.6760   25.6620   -2.1210 O   0  0  0  0  0  0  0  0  0  0  0  0
  8  1  1  0
 13  1  1  0
 14  1  1  0
 15  1  1  0
  3  2  2  0
 11  2  1  0
 12  2  1  0
  4  3  1  0
  5  4  2  0
  6  5  1  0
 10  5  1  0
  7  6  2  0
  8  7  1  0
  9  8  2  0
 10  9  1  0
 11 10  2  0
 19 12  1  0
 20 12  1  0
 21 12  1  0
 16 15  2  0
 17 15  1  0
 18 15  1  0
 22 21  2  0
 23 21  1  0
 24 21  1  0
A    1
C1
A    2
C2
A    3
C3
A    4
C4
A    5
C5
A    6
C6
A    7
C7
A    8
C8
A    9
C9
A   10
C10
A   11
C11
A   12
C12
A   13
F1
A   14
F2
A   15
P1
A   16
OP1
A   17
OP2
A   18
OP3
A   19
F3
A   20
F4
A   21
P2
A   22
OP4
A   23
OP5
A   24
OP6
M  END
>  <Id>  (2) 
1KAK_FNP_A_301

>  <ChainId>  (2) 
A

>  <AsymId>  (2) 
B

>  <SeqNum>  (2) 
301

>  <Name>  (2) 
{[7-(DIFLUORO-PHOSPHONO-METHYL)-NAPHTHALEN-2-YL]-DIFLUORO-METHYL}-PHOSPHONIC ACID

>  <SystematicName>  (2) 
[[7-(difluoro-phosphono-methyl)naphthalen-2-yl]-difluoro-methyl]phosphonic acid

>  <Synonyms>  (2) 


>  <Type>  (2) 
NON-POLYMER

>  <Formula>  (2) 
C12 H10 F4 O6 P2

>  <ObservedFormula>  (2) 
P2 C12 F4 O6

>  <MolecularWeight>  (2) 
388.145

>  <ModifiedDate>  (2) 
2011-06-04

>  <Parent>  (2) 


>  <OneLetterCode>  (2) 


>  <SubcomponentList>  (2) 


>  <AmbiguousFlag>  (2) 
N

>  <InsertionCode>  (2) 


>  <InstanceId>  (2) 
1KAK_FNP_A_301

>  <ChemCompId>  (2) 
FNP

>  <PdbId>  (2) 
1KAK

>  <ResidueNumber>  (2) 
301

>  <InChI>  (2) 
InChI=1S/C12H10F4O6P2/c13-11(14,23(17,18)19)9-3-1-7-2-4-10(6-8(7)5-9)12(15,16)24(20,21)22/h1-6H,(H2,17,18,19)(H2,20,21,22)

>  <InChIKey>  (2) 
VHKBLEYUHBIBNR-UHFFFAOYSA-N

>  <SMILES>  (2) 
c1cc(cc2c1ccc(c2)C(F)(F)P(=O)(O)O)C(F)(F)P(=O)(O)O

>  <MissingHeavyAtoms>  (2) 
0

>  <Model>  (2) 
1

>  <AltIds>  (2) 


>  <pKI>  (2) 
4.8

>  <ChemblID>  (2) 
CHEMBL119459

>  <standardized_canonical_smiles>  (2) 
O=P(O)(O)C(F)(F)c1ccc2ccc(C(F)(F)P(=O)(O)O)cc2c1

$$$$
1NO6_794_A_322
     RDKit          3D

 25 27  0  0  0  0  0  0  0  0999 V2000
   36.0610   29.8300   23.5530 O   0  0  0  0  0  0  0  0  0  0  0  0
   35.0690   29.0480   23.7960 C   0  0  0  0  0  0  0  0  0  0  0  0
   34.1270   29.4050   24.5360 O   0  0  0  0  0  0  0  0  0  0  0  0
   34.9430   27.6620   23.1430 C   0  0  0  0  0  0  0  0  0  0  0  0
   34.8680   26.7390   23.9790 O   0  0  0  0  0  0  0  0  0  0  0  0
   34.9010   27.4660   21.6720 N   0  0  0  0  0  0  0  0  0  0  0  0
   34.7480   26.1330   21.1450 C   0  0  0  0  0  0  0  0  0  0  0  0
   33.5110   25.8340   20.4360 C   0  0  0  0  0  0  0  0  0  0  0  0
   33.2550   24.5360   19.8840 C   0  0  0  0  0  0  0  0  0  0  0  0
   34.2080   23.5020   20.0240 C   0  0  0  0  0  0  0  0  0  0  0  0
   35.4290   23.7300   20.7110 C   0  0  0  0  0  0  0  0  0  0  0  0
   35.7520   25.0250   21.2870 C   0  0  0  0  0  0  0  0  0  0  0  0
   37.0730   25.1610   21.9860 C   0  0  0  0  0  0  0  0  0  0  0  0
   37.8340   24.1850   22.0880 O   0  0  0  0  0  0  0  0  0  0  0  0
   37.3770   26.2280   22.4400 O   0  0  0  0  0  0  0  0  0  0  0  0
   34.9980   28.5630   20.7850 C   0  0  0  0  0  0  0  0  0  0  0  0
   36.2490   28.7810   20.1090 C   0  0  0  0  0  0  0  0  0  0  0  0
   36.4270   29.8690   19.1930 C   0  0  0  0  0  0  0  0  0  0  0  0
   35.3500   30.7620   18.9380 C   0  0  0  0  0  0  0  0  0  0  0  0
   34.0830   30.5890   19.5900 C   0  0  0  0  0  0  0  0  0  0  0  0
   33.8850   29.4780   20.5300 C   0  0  0  0  0  0  0  0  0  0  0  0
   32.5940   29.3260   21.1720 C   0  0  0  0  0  0  0  0  0  0  0  0
   31.5530   30.2510   20.8830 C   0  0  0  0  0  0  0  0  0  0  0  0
   31.7660   31.3360   19.9570 C   0  0  0  0  0  0  0  0  0  0  0  0
   33.0210   31.4940   19.3240 C   0  0  0  0  0  0  0  0  0  0  0  0
  2  1  1  0
  3  2  2  0
  4  2  1  0
  5  4  2  0
  6  4  1  0
  7  6  1  0
 16  6  1  0
  8  7  2  0
 12  7  1  0
  9  8  1  0
 10  9  2  0
 11 10  1  0
 12 11  2  0
 13 12  1  0
 14 13  2  0
 15 13  1  0
 17 16  2  0
 21 16  1  0
 18 17  1  0
 19 18  2  0
 20 19  1  0
 21 20  2  0
 25 20  1  0
 22 21  1  0
 23 22  2  0
 24 23  1  0
 25 24  2  0
A    1
O35
A    2
C30
A    3
O36
A    4
C19
A    5
O34
A    6
N18
A    7
C20
A    8
C21
A    9
C22
A   10
C23
A   11
C24
A   12
C25
A   13
C31
A   14
O32
A   15
O33
A   16
C11
A   17
C12
A   18
C13
A   19
C14
A   20
C2
A   21
C1
A   22
C6
A   23
C5
A   24
C4
A   25
C3
M  END
>  <Id>  (3) 
1NO6_794_A_322

>  <ChainId>  (3) 
A

>  <AsymId>  (3) 
B

>  <SeqNum>  (3) 
322

>  <Name>  (3) 
2-[(CARBOXYCARBONYL)(1-NAPHTHYL)AMINO]BENZOIC ACID

>  <SystematicName>  (3) 
2-(carboxycarbonyl-naphthalen-1-yl-amino)benzoic acid

>  <Synonyms>  (3) 
COMPOUND 5, 2-(NAPHTHALEN-1-YL-OXALYL-AMINO)-BENZOIC ACID

>  <Type>  (3) 
NON-POLYMER

>  <Formula>  (3) 
C19 H13 N O5

>  <ObservedFormula>  (3) 
C19 N O5

>  <MolecularWeight>  (3) 
335.31

>  <ModifiedDate>  (3) 
2011-06-04

>  <Parent>  (3) 


>  <OneLetterCode>  (3) 


>  <SubcomponentList>  (3) 


>  <AmbiguousFlag>  (3) 
N

>  <InsertionCode>  (3) 


>  <InstanceId>  (3) 
1NO6_794_A_322

>  <ChemCompId>  (3) 
794

>  <PdbId>  (3) 
1NO6

>  <ResidueNumber>  (3) 
322

>  <InChI>  (3) 
InChI=1S/C19H13NO5/c21-17(19(24)25)20(16-10-4-3-9-14(16)18(22)23)15-11-5-7-12-6-1-2-8-13(12)15/h1-11H,(H,22,23)(H,24,25)

>  <InChIKey>  (3) 
WQWCUHJIERBOSM-UHFFFAOYSA-N

>  <SMILES>  (3) 
c1ccc2c(c1)cccc2N(c3ccccc3C(=O)O)C(=O)C(=O)O

>  <MissingHeavyAtoms>  (3) 
0

>  <Model>  (3) 
1

>  <AltIds>  (3) 


>  <pKI>  (3) 
4.52

>  <ChemblID>  (3) 
CHEMBL64934

>  <standardized_canonical_smiles>  (3) 
O=C(O)C(=O)N(c1ccccc1C(=O)O)c1cccc2ccccc12

$$$$
1ONZ_968_A_322
     RDKit          3D

 26 28  0  0  0  0  0  0  0  0999 V2000
   35.8660   29.8950   23.2960 O   0  0  0  0  0  0  0  0  0  0  0  0
   34.9710   29.0780   23.5070 C   0  0  0  0  0  0  0  0  0  0  0  0
   33.9160   29.3710   24.3340 O   0  0  0  0  0  0  0  0  0  0  0  0
   34.8950   27.6600   22.8730 C   0  0  0  0  0  0  0  0  0  0  0  0
   34.4070   26.8030   23.6910 O   0  0  0  0  0  0  0  0  0  0  0  0
   34.2080   27.4370   21.5970 N   0  0  0  0  0  0  0  0  0  0  0  0
   34.1390   26.0780   20.9950 C   0  0  0  0  0  0  0  0  0  0  0  0
   32.8490   25.6860   20.3650 C   0  0  0  0  0  0  0  0  0  0  0  0
   32.6140   24.4070   19.7350 C   0  0  0  0  0  0  0  0  0  0  0  0
   33.6610   23.4220   19.6890 C   0  0  0  0  0  0  0  0  0  0  0  0
   34.9300   23.7190   20.2690 C   0  0  0  0  0  0  0  0  0  0  0  0
   35.2230   25.0330   20.9350 C   0  0  0  0  0  0  0  0  0  0  0  0
   36.6220   25.1500   21.4820 C   0  0  0  0  0  0  0  0  0  0  0  0
   37.0940   24.0660   22.1940 O   0  0  0  0  0  0  0  0  0  0  0  0
   37.2970   26.1320   21.3320 O   0  0  0  0  0  0  0  0  0  0  0  0
   33.6070   28.5670   20.9160 C   0  0  0  0  0  0  0  0  0  0  0  0
   32.3100   29.0750   21.3400 C   0  0  0  0  0  0  0  0  0  0  0  0
   31.6590   30.2050   20.6940 C   0  0  0  0  0  0  0  0  0  0  0  0
   32.2910   30.8740   19.5820 C   0  0  0  0  0  0  0  0  0  0  0  0
   33.5960   30.3930   19.1210 C   0  0  0  0  0  0  0  0  0  0  0  0
   34.2400   31.0480   18.0000 C   0  0  0  0  0  0  0  0  0  0  0  0
   35.5500   30.5870   17.5150 C   0  0  0  0  0  0  0  0  0  0  0  0
   36.2020   29.4790   18.1570 C   0  0  0  0  0  0  0  0  0  0  0  0
   37.4520   29.0260   17.7120 O   0  0  0  0  0  0  0  0  0  0  0  0
   35.5620   28.8250   19.2680 C   0  0  0  0  0  0  0  0  0  0  0  0
   34.2580   29.2510   19.7800 C   0  0  0  0  0  0  0  0  0  0  0  0
  2  1  1  0
  3  2  2  0
  4  2  1  0
  5  4  2  0
  6  4  1  0
  7  6  1  0
 16  6  1  0
  8  7  2  0
 12  7  1  0
  9  8  1  0
 10  9  2  0
 11 10  1  0
 12 11  2  0
 13 12  1  0
 14 13  2  0
 15 13  1  0
 17 16  2  0
 26 16  1  0
 18 17  1  0
 19 18  2  0
 20 19  1  0
 21 20  1  0
 26 20  2  0
 22 21  2  0
 23 22  1  0
 24 23  1  0
 25 23  2  0
 26 25  1  0
A    1
O21
A    2
C20
A    3
O22
A    4
C18
A    5
O23
A    6
N17
A    7
C19
A    8
C24
A    9
C25
A   10
C26
A   11
C27
A   12
C28
A   13
C33
A   14
O34
A   15
O35
A   16
C13
A   17
C12
A   18
C11
A   19
C10
A   20
C3
A   21
C2
A   22
C1
A   23
C6
A   24
O36
A   25
C5
A   26
C4
M  END
>  <Id>  (4) 
1ONZ_968_A_322

>  <ChainId>  (4) 
A

>  <AsymId>  (4) 
B

>  <SeqNum>  (4) 
322

>  <Name>  (4) 
2-[(7-HYDROXY-NAPHTHALEN-1-YL)-OXALYL-AMINO]-BENZOIC ACID

>  <SystematicName>  (4) 
2-[carboxycarbonyl-(7-hydroxynaphthalen-1-yl)amino]benzoic acid

>  <Synonyms>  (4) 
COMPOUND 8B

>  <Type>  (4) 
NON-POLYMER

>  <Formula>  (4) 
C19 H13 N O6

>  <ObservedFormula>  (4) 
C19 N O6

>  <MolecularWeight>  (4) 
351.31

>  <ModifiedDate>  (4) 
2011-06-04

>  <Parent>  (4) 


>  <OneLetterCode>  (4) 


>  <SubcomponentList>  (4) 


>  <AmbiguousFlag>  (4) 
N

>  <InsertionCode>  (4) 


>  <InstanceId>  (4) 
1ONZ_968_A_322

>  <ChemCompId>  (4) 
968

>  <PdbId>  (4) 
1ONZ

>  <ResidueNumber>  (4) 
322

>  <InChI>  (4) 
InChI=1S/C19H13NO6/c21-12-9-8-11-4-3-7-16(14(11)10-12)20(17(22)19(25)26)15-6-2-1-5-13(15)18(23)24/h1-10,21H,(H,23,24)(H,25,26)

>  <InChIKey>  (4) 
IGOULVZYQKJJKC-UHFFFAOYSA-N

>  <SMILES>  (4) 
c1ccc(c(c1)C(=O)O)N(c2cccc3c2cc(cc3)O)C(=O)C(=O)O

>  <MissingHeavyAtoms>  (4) 
0

>  <Model>  (4) 
1

>  <AltIds>  (4) 


>  <pKI>  (4) 
4.68

>  <ChemblID>  (4) 
CHEMBL305785

>  <standardized_canonical_smiles>  (4) 
O=C(O)C(=O)N(c1ccccc1C(=O)O)c1cccc2ccc(O)cc12

$$$$
1BZJ_PIC_A_301
     RDKit          3D

 20 21  0  0  0  0  0  0  0  0999 V2000
   46.4480   15.8550    4.2270 C   0  0  0  0  0  0  0  0  0  0  0  0
   45.8550   14.9180    3.2840 C   0  0  0  0  0  0  0  0  0  0  0  0
   44.7470   15.2970    2.4980 C   0  0  0  0  0  0  0  0  0  0  0  0
   44.6670   10.9800    0.3540 C   0  0  0  0  0  0  0  0  0  0  0  0
   45.7820   10.6110    1.1300 C   0  0  0  0  0  0  0  0  0  0  0  0
   46.3650   11.4670    2.0570 C   0  0  0  0  0  0  0  0  0  0  0  0
   45.8450   12.7410    2.2120 C   0  0  0  0  0  0  0  0  0  0  0  0
   46.4100   13.6320    3.1300 C   0  0  0  0  0  0  0  0  0  0  0  0
   44.0620   10.0090   -0.6600 C   0  0  0  0  0  0  0  0  0  0  0  0
   44.1660   14.4320    1.5820 C   0  0  0  0  0  0  0  0  0  0  0  0
   44.7070   13.1440    1.4220 C   0  0  0  0  0  0  0  0  0  0  0  0
   44.1320   12.2430    0.5070 C   0  0  0  0  0  0  0  0  0  0  0  0
   43.0550   10.3370   -1.3530 O   0  0  0  0  0  0  0  0  0  0  0  0
   44.5790    8.8700   -0.7610 O   0  0  0  0  0  0  0  0  0  0  0  0
   46.5800   17.0870    3.6580 F   0  0  0  0  0  0  0  0  0  0  0  0
   47.6970   15.4340    4.5350 F   0  0  0  0  0  0  0  0  0  0  0  0
   45.4230   16.0660    5.7000 P   0  0  0  0  0  0  0  0  0  0  0  0
   46.0640   17.0350    6.6250 O   0  0  0  0  0  0  0  0  0  0  0  0
   45.3680   14.8540    6.5690 O   0  0  0  0  0  0  0  0  0  0  0  0
   43.8470   16.5390    5.4750 O   0  0  0  0  0  0  0  0  0  0  0  0
  2  1  1  0
 15  1  1  0
 16  1  1  0
 17  1  1  0
  3  2  2  0
  8  2  1  0
 10  3  1  0
  5  4  1  0
  9  4  1  0
 12  4  2  0
  6  5  2  0
  7  6  1  0
  8  7  2  0
 11  7  1  0
 13  9  1  0
 14  9  2  0
 11 10  2  0
 12 11  1  0
 18 17  1  0
 19 17  1  0
 20 17  2  0
A    1
C1
A    2
C2
A    3
C3
A    4
C7
A    5
C8
A    6
C9
A    7
C10
A    8
C11
A    9
C12
A   10
C4
A   11
C5
A   12
C6
A   13
O1
A   14
O2
A   15
F1
A   16
F2
A   17
P
A   18
OP1
A   19
OP2
A   20
OP3
M  END
>  <Id>  (5) 
1BZJ_PIC_A_301

>  <ChainId>  (5) 
A

>  <AsymId>  (5) 
B

>  <SeqNum>  (5) 
301

>  <Name>  (5) 
6-(DIFLUORO-PHOSPHONO-METHYL)-NAPHTHALENE-2-CARBOXYLIC ACID

>  <SystematicName>  (5) 
6-(difluoro-phosphono-methyl)naphthalene-2-carboxylic acid

>  <Synonyms>  (5) 


>  <Type>  (5) 
NON-POLYMER

>  <Formula>  (5) 
C12 H9 F2 O5 P

>  <ObservedFormula>  (5) 
P C12 F2 O5

>  <MolecularWeight>  (5) 
302.167

>  <ModifiedDate>  (5) 
2011-06-04

>  <Parent>  (5) 


>  <OneLetterCode>  (5) 


>  <SubcomponentList>  (5) 


>  <AmbiguousFlag>  (5) 
N

>  <InsertionCode>  (5) 


>  <InstanceId>  (5) 
1BZJ_PIC_A_301

>  <ChemCompId>  (5) 
PIC

>  <PdbId>  (5) 
1BZJ

>  <ResidueNumber>  (5) 
301

>  <InChI>  (5) 
InChI=1S/C12H9F2O5P/c13-12(14,20(17,18)19)10-4-3-7-5-9(11(15)16)2-1-8(7)6-10/h1-6H,(H,15,16)(H2,17,18,19)

>  <InChIKey>  (5) 
NKGNOWNPXBURRW-UHFFFAOYSA-N

>  <SMILES>  (5) 
c1cc(cc2c1cc(cc2)C(F)(F)P(=O)(O)O)C(=O)O

>  <MissingHeavyAtoms>  (5) 
0

>  <Model>  (5) 
1

>  <AltIds>  (5) 


>  <pKI>  (5) 
4.66

>  <ChemblID>  (5) 
CHEMBL99447

>  <standardized_canonical_smiles>  (5) 
O=C(O)c1ccc2cc(C(F)(F)P(=O)(O)O)ccc2c1

$$$$
1PH0_418_A_322
     RDKit          3D

 46 48  0  0  0  0  0  0  0  0999 V2000
   35.7330   29.8910   23.4000 O   0  0  0  0  0  0  0  0  0  0  0  0
   34.8130   29.1770   23.7110 C   0  0  0  0  0  0  0  0  0  0  0  0
   33.9700   29.5800   24.5140 O   0  0  0  0  0  0  0  0  0  0  0  0
   34.6800   27.7650   23.0760 C   0  0  0  0  0  0  0  0  0  0  0  0
   34.9130   26.8140   23.8310 O   0  0  0  0  0  0  0  0  0  0  0  0
   34.2610   27.5770   21.7320 N   0  0  0  0  0  0  0  0  0  0  0  0
   33.7830   28.6800   20.9850 C   0  0  0  0  0  0  0  0  0  0  0  0
   32.4670   29.2020   21.3270 C   0  0  0  0  0  0  0  0  0  0  0  0
   31.9220   30.2880   20.6110 C   0  0  0  0  0  0  0  0  0  0  0  0
   32.6710   30.8710   19.5430 C   0  0  0  0  0  0  0  0  0  0  0  0
   33.9820   30.3820   19.1790 C   0  0  0  0  0  0  0  0  0  0  0  0
   34.5480   29.2740   19.9060 C   0  0  0  0  0  0  0  0  0  0  0  0
   31.9990   32.0180   18.7930 C   0  0  0  0  0  0  0  0  0  0  0  0
   31.3680   31.5800   17.4250 C   0  0  0  0  0  0  0  0  0  0  0  0
   30.7180   32.7640   16.8170 N   0  0  0  0  0  0  0  0  0  0  0  0
   30.6570   32.9420   15.4740 C   0  0  0  0  0  0  0  0  0  0  0  0
   31.1040   32.1880   14.6110 O   0  0  0  0  0  0  0  0  0  0  0  0
   29.9480   34.2270   15.0840 O   0  0  0  0  0  0  0  0  0  0  0  0
   30.4820   30.3230   17.5770 C   0  0  0  0  0  0  0  0  0  0  0  0
   30.9580   29.1920   17.4300 O   0  0  0  0  0  0  0  0  0  0  0  0
   29.1930   30.5860   17.9090 N   0  0  0  0  0  0  0  0  0  0  0  0
   28.2650   29.4640   18.1100 C   0  0  0  0  0  0  0  0  0  0  0  0
   27.2510   29.7640   19.2260 C   0  0  0  0  0  0  0  0  0  0  0  0
   27.8670   30.4800   20.4480 C   0  0  0  0  0  0  0  0  0  0  0  0
   26.8440   30.7790   21.5500 C   0  0  0  0  0  0  0  0  0  0  0  0
   26.1580   29.5650   21.9140 O   0  0  0  0  0  0  0  0  0  0  0  0
   24.8550   29.6230   22.4610 C   0  0  0  0  0  0  0  0  0  0  0  0
   24.1590   30.8600   22.6970 C   0  0  0  0  0  0  0  0  0  0  0  0
   22.8510   30.8450   23.2480 C   0  0  0  0  0  0  0  0  0  0  0  0
   22.2330   29.6150   23.5770 C   0  0  0  0  0  0  0  0  0  0  0  0
   22.8880   28.3800   23.3590 C   0  0  0  0  0  0  0  0  0  0  0  0
   22.2910   27.3500   23.6690 O   0  0  0  0  0  0  0  0  0  0  0  0
   24.2140   28.3800   22.8090 C   0  0  0  0  0  0  0  0  0  0  0  0
   24.9200   27.0980   22.5780 C   0  0  0  0  0  0  0  0  0  0  0  0
   25.1690   26.3300   23.4800 O   0  0  0  0  0  0  0  0  0  0  0  0
   25.2450   26.9000   21.2920 O   0  0  0  0  0  0  0  0  0  0  0  0
   25.9560   25.6960   20.8360 C   0  0  0  0  0  0  0  0  0  0  0  0
   34.1930   26.2560   21.1480 C   0  0  0  0  0  0  0  0  0  0  0  0
   32.9200   25.8840   20.5450 C   0  0  0  0  0  0  0  0  0  0  0  0
   32.7270   24.6120   19.9320 C   0  0  0  0  0  0  0  0  0  0  0  0
   33.7930   23.6740   19.8700 C   0  0  0  0  0  0  0  0  0  0  0  0
   35.0570   23.9860   20.4380 C   0  0  0  0  0  0  0  0  0  0  0  0
   35.2910   25.2720   21.0640 C   0  0  0  0  0  0  0  0  0  0  0  0
   36.6650   25.4620   21.6050 C   0  0  0  0  0  0  0  0  0  0  0  0
   37.1900   24.5760   22.2480 O   0  0  0  0  0  0  0  0  0  0  0  0
   37.3150   26.4900   21.4400 O   0  0  0  0  0  0  0  0  0  0  0  0
  2  1  1  0
  3  2  2  0
  4  2  1  0
  5  4  2  0
  6  4  1  0
  7  6  1  0
 38  6  1  0
  8  7  2  0
 12  7  1  0
  9  8  1  0
 10  9  2  0
 11 10  1  0
 13 10  1  0
 12 11  2  0
 14 13  1  0
 15 14  1  0
 19 14  1  0
 16 15  1  0
 17 16  2  0
 18 16  1  0
 20 19  2  0
 21 19  1  0
 22 21  1  0
 23 22  1  0
 24 23  1  0
 25 24  1  0
 26 25  1  0
 27 26  1  0
 28 27  2  0
 33 27  1  0
 29 28  1  0
 30 29  2  0
 31 30  1  0
 32 31  1  0
 33 31  2  0
 34 33  1  0
 35 34  2  0
 36 34  1  0
 37 36  1  0
 39 38  2  0
 43 38  1  0
 40 39  1  0
 41 40  2  0
 42 41  1  0
 43 42  2  0
 44 43  1  0
 45 44  2  0
 46 44  1  0
A    1
O6
A    2
C24
A    3
O7
A    4
C8
A    5
O5
A    6
N4
A    7
C2
A    8
C3
A    9
C4
A   10
C5
A   11
C6
A   12
C1
A   13
C7
A   14
C9
A   15
N1
A   16
C10
A   17
O4
A   18
O23
A   19
C11
A   20
O8
A   21
N2
A   22
C12
A   23
C13
A   24
C15
A   25
C14
A   26
O1
A   27
C32
A   28
C33
A   29
C34
A   30
C35
A   31
C36
A   32
O13
A   33
C37
A   34
C38
A   35
O11
A   36
O12
A   37
C39
A   38
C26
A   39
C27
A   40
C28
A   41
C29
A   42
C30
A   43
C25
A   44
C31
A   45
O9
A   46
O10
M  END
>  <Id>  (6) 
1PH0_418_A_322

>  <ChainId>  (6) 
A

>  <AsymId>  (6) 
B

>  <SeqNum>  (6) 
322

>  <Name>  (6) 
2-{4-[2-(S)-ALLYLOXYCARBONYLAMINO-3-{4-[(2-CARBOXY-PHENYL)-OXALYL-AMINO]-PHENYL}-PROPIONYLAMINO]-BUTOXY}-6-HYDROXY-BENZOIC ACID METHYL ESTER

>  <SystematicName>  (6) 
2-[carboxycarbonyl-[4-[(2S)-3-[4-(3-hydroxy-2-methoxycarbonyl-phenoxy)butylamino]-3-oxo-2-(prop-2-enoxycarbonylamino)propyl]phenyl]amino]benzoic acid

>  <Synonyms>  (6) 
COMPOUND 6; N-(ALLYLOXYCARBONYL)-4-[N-(CARBOXY-FORMYL)-2-(BENZOIC ACID)-AMINO]-L-PHENYLALANINYL-AMINO-BUTYLOXY-(6-HYDROXY-BENZOIC ACID METHYL ESTER)

>  <Type>  (6) 
NON-POLYMER

>  <Formula>  (6) 
C34 H35 N3 O12

>  <ObservedFormula>  (6) 
C31 N3 O12

>  <MolecularWeight>  (6) 
677.655

>  <ModifiedDate>  (6) 
2011-06-04

>  <Parent>  (6) 


>  <OneLetterCode>  (6) 


>  <SubcomponentList>  (6) 


>  <AmbiguousFlag>  (6) 
N

>  <InsertionCode>  (6) 


>  <InstanceId>  (6) 
1PH0_418_A_322

>  <ChemCompId>  (6) 
418

>  <PdbId>  (6) 
1PH0

>  <ResidueNumber>  (6) 
322

>  <InChI>  (6) 
InChI=1S/C34H35N3O12/c1-3-18-49-34(46)36-24(29(39)35-17-6-7-19-48-27-12-8-11-26(38)28(27)33(45)47-2)20-21-13-15-22(16-14-21)37(30(40)32(43)44)25-10-5-4-9-23(25)31(41)42/h3-5,8-16,24,38H,1,6-7,17-20H2,2H3,(H,35,39)(H,36,46)(H,41,42)(H,43,44)/t24-/m0/s1

>  <InChIKey>  (6) 
JTJBRKLISQICDU-DEOSSOPVSA-N

>  <SMILES>  (6) 
COC(=O)c1c(cccc1OCCCCNC(=O)[C@H](Cc2ccc(cc2)N(c3ccccc3C(=O)O)C(=O)C(=O)O)NC(=O)OCC=C)O

>  <MissingHeavyAtoms>  (6) 
3

>  <Model>  (6) 
1

>  <AltIds>  (6) 


>  <pKI>  (6) 
6.92

>  <ChemblID>  (6) 
CHEMBL325029

>  <standardized_canonical_smiles>  (6) 
C=CCOC(=O)N[C@@H](Cc1ccc(N(C(=O)C(=O)O)c2ccccc2C(=O)O)cc1)C(=O)NCCCCOc1cccc(O)c1C(=O)OC

$$$$
1NZ7_901_A_322
     RDKit          3D

 47 48  0  0  0  0  0  0  0  0999 V2000
   35.7960   30.0420   23.4430 O   0  0  0  0  0  0  0  0  0  0  0  0
   34.8560   29.2950   23.7270 C   0  0  0  0  0  0  0  0  0  0  0  0
   33.9830   29.6860   24.4570 O   0  0  0  0  0  0  0  0  0  0  0  0
   34.7810   27.8570   23.1240 C   0  0  0  0  0  0  0  0  0  0  0  0
   35.0950   26.9380   23.9000 O   0  0  0  0  0  0  0  0  0  0  0  0
   34.3740   27.6280   21.7530 N   0  0  0  0  0  0  0  0  0  0  0  0
   34.3520   26.3200   21.1990 C   0  0  0  0  0  0  0  0  0  0  0  0
   33.1090   25.9260   20.5740 C   0  0  0  0  0  0  0  0  0  0  0  0
   32.9290   24.6680   19.9780 C   0  0  0  0  0  0  0  0  0  0  0  0
   33.9690   23.7240   19.9810 C   0  0  0  0  0  0  0  0  0  0  0  0
   35.2050   24.0410   20.5750 C   0  0  0  0  0  0  0  0  0  0  0  0
   35.4480   25.3150   21.2040 C   0  0  0  0  0  0  0  0  0  0  0  0
   36.8440   25.4580   21.7700 C   0  0  0  0  0  0  0  0  0  0  0  0
   37.6800   24.5540   21.7180 O   0  0  0  0  0  0  0  0  0  0  0  0
   37.2040   26.4580   22.3010 O   0  0  0  0  0  0  0  0  0  0  0  0
   33.8780   28.7270   20.9920 C   0  0  0  0  0  0  0  0  0  0  0  0
   32.5840   29.2390   21.3870 C   0  0  0  0  0  0  0  0  0  0  0  0
   31.9140   30.3380   20.7780 C   0  0  0  0  0  0  0  0  0  0  0  0
   32.5260   31.0410   19.7040 C   0  0  0  0  0  0  0  0  0  0  0  0
   33.8780   30.4990   19.3010 C   0  0  0  0  0  0  0  0  0  0  0  0
   34.5700   29.3730   19.9080 C   0  0  0  0  0  0  0  0  0  0  0  0
   35.9420   28.8750   19.4460 C   0  0  0  0  0  0  0  0  0  0  0  0
   37.0400   29.9520   19.3760 C   0  0  0  0  0  0  0  0  0  0  0  0
   31.9740   32.2570   18.7980 C   0  0  0  0  0  0  0  0  0  0  0  0
   31.1950   31.4670   17.6480 C   0  0  0  0  0  0  0  0  0  0  0  0
   31.2010   32.2800   16.4480 N   0  0  0  0  0  0  0  0  0  0  0  0
   31.1170   33.3250   15.6150 C   0  0  0  0  0  0  0  0  0  0  0  0
   31.5570   32.9620   14.4230 O   0  0  0  0  0  0  0  0  0  0  0  0
   30.8810   34.7290   15.9670 C   0  0  0  0  0  0  0  0  0  0  0  0
   29.9780   30.5910   17.9600 C   0  0  0  0  0  0  0  0  0  0  0  0
   30.3820   29.4080   17.8860 O   0  0  0  0  0  0  0  0  0  0  0  0
   28.7940   31.0600   18.1140 N   0  0  0  0  0  0  0  0  0  0  0  0
   27.6640   30.2030   18.2510 C   0  0  0  0  0  0  0  0  0  0  0  0
   26.7540   30.7360   19.3630 C   0  0  0  0  0  0  0  0  0  0  0  0
   27.4040   30.6850   20.7750 C   0  0  0  0  0  0  0  0  0  0  0  0
   26.4990   31.2100   21.9140 C   0  0  0  0  0  0  0  0  0  0  0  0
   25.3580   30.2310   22.2820 C   0  0  0  0  0  0  0  0  0  0  0  0
   25.3270   29.0480   22.6160 O   0  0  0  0  0  0  0  0  0  0  0  0
   24.2710   31.0360   22.1280 N   0  0  0  0  0  0  0  0  0  0  0  0
   22.8930   30.5330   22.2650 C   0  0  0  0  0  0  0  0  0  0  0  0
   22.6240   29.4330   21.2090 C   0  0  0  0  0  0  0  0  0  0  0  0
   22.1050   28.3740   21.5520 O   0  0  0  0  0  0  0  0  0  0  0  0
   22.9420   29.6080   20.0560 O   0  0  0  0  0  0  0  0  0  0  0  0
   21.9070   31.7010   22.0810 C   0  0  0  0  0  0  0  0  0  0  0  0
   21.9880   32.7600   23.1930 C   0  0  0  0  0  0  0  0  0  0  0  0
   21.0650   32.2890   24.6740 S   0  0  0  0  0  0  0  0  0  0  0  0
   19.6410   31.7210   25.0580 C   0  0  0  0  0  0  0  0  0  0  0  0
  2  1  1  0
  3  2  2  0
  4  2  1  0
  5  4  2  0
  6  4  1  0
  7  6  1  0
 16  6  1  0
  8  7  2  0
 12  7  1  0
  9  8  1  0
 10  9  2  0
 11 10  1  0
 12 11  2  0
 13 12  1  0
 14 13  2  0
 15 13  1  0
 17 16  2  0
 21 16  1  0
 18 17  1  0
 19 18  2  0
 20 19  1  0
 24 19  1  0
 21 20  2  0
 22 21  1  0
 23 22  1  0
 25 24  1  0
 26 25  1  0
 30 25  1  0
 27 26  1  0
 28 27  2  0
 29 27  1  0
 31 30  2  0
 32 30  1  0
 33 32  1  0
 34 33  1  0
 35 34  1  0
 36 35  1  0
 37 36  1  0
 38 37  2  0
 39 37  1  0
 40 39  1  0
 41 40  1  0
 44 40  1  0
 42 41  2  0
 43 41  1  0
 45 44  1  0
 46 45  1  0
 47 46  1  0
A    1
O6
A    2
C24
A    3
O7
A    4
C8
A    5
O5
A    6
N4
A    7
C26
A    8
C27
A    9
C28
A   10
C29
A   11
C30
A   12
C25
A   13
C31
A   14
O9
A   15
O10
A   16
C2
A   17
C3
A   18
C4
A   19
C5
A   20
C6
A   21
C1
A   22
C32
A   23
C33
A   24
C7
A   25
C9
A   26
N1
A   27
C10
A   28
O4
A   29
C23
A   30
C11
A   31
O8
A   32
N2
A   33
C12
A   34
C13
A   35
C15
A   36
C14
A   37
C16
A   38
O1
A   39
N3
A   40
C17
A   41
C22
A   42
O2
A   43
O3
A   44
C18
A   45
C34
A   46
S1
A   47
C35
M  END
>  <Id>  (7) 
1NZ7_901_A_322

>  <ChainId>  (7) 
A

>  <AsymId>  (7) 
B

>  <SeqNum>  (7) 
322

>  <Name>  (7) 
2-[(4-{2-ACETYLAMINO-2-[4-(1-CARBOXY-3-METHYLSULFANYL-PROPYLCARBAMOYL)-BUTYLCARBAMOYL]-ETHYL}-2-ETHYL-PHENYL)-OXALYL-AMINO]-BENZOIC ACID

>  <SystematicName>  (7) 
2-[[4-[(2S)-2-acetamido-3-[[5-[[(2S)-1-hydroxy-4-methylsulfanyl-1-oxo-butan-2-yl]amino]-5-oxo-pentyl]amino]-3-oxo-propyl]-2-ethyl-phenyl]-(carboxycarbonyl)amino]benzoic acid

>  <Synonyms>  (7) 
COMPOUND 19

>  <Type>  (7) 
NON-POLYMER

>  <Formula>  (7) 
C32 H40 N4 O10 S

>  <ObservedFormula>  (7) 
C32 S N4 O10

>  <MolecularWeight>  (7) 
672.746

>  <ModifiedDate>  (7) 
2011-06-04

>  <Parent>  (7) 


>  <OneLetterCode>  (7) 


>  <SubcomponentList>  (7) 


>  <AmbiguousFlag>  (7) 
N

>  <InsertionCode>  (7) 


>  <InstanceId>  (7) 
1NZ7_901_A_322

>  <ChemCompId>  (7) 
901

>  <PdbId>  (7) 
1NZ7

>  <ResidueNumber>  (7) 
322

>  <InChI>  (7) 
InChI=1S/C32H40N4O10S/c1-4-21-17-20(12-13-25(21)36(29(40)32(45)46)26-10-6-5-9-22(26)30(41)42)18-24(34-19(2)37)28(39)33-15-8-7-11-27(38)35-23(31(43)44)14-16-47-3/h5-6,9-10,12-13,17,23-24H,4,7-8,11,14-16,18H2,1-3H3,(H,33,39)(H,34,37)(H,35,38)(H,41,42)(H,43,44)(H,45,46)/t23-,24-/m0/s1

>  <InChIKey>  (7) 
JYWLVKREVMTEJA-ZEQRLZLVSA-N

>  <SMILES>  (7) 
CCc1cc(ccc1N(c2ccccc2C(=O)O)C(=O)C(=O)O)C[C@@H](C(=O)NCCCCC(=O)N[C@@H](CCSC)C(=O)O)NC(=O)C

>  <MissingHeavyAtoms>  (7) 
0

>  <Model>  (7) 
1

>  <AltIds>  (7) 


>  <pKI>  (7) 
7.14

>  <ChemblID>  (7) 
CHEMBL55243

>  <standardized_canonical_smiles>  (7) 
CCc1cc(CC(NC(C)=O)C(=O)NCCCCC(=O)N[C@@H](CCSC)C(=O)O)ccc1N(C(=O)C(=O)O)c1ccccc1C(=O)O

$$$$
1G7G_INX_A_600
     RDKit          3D

 43 44  0  0  0  0  0  0  0  0999 V2000
   13.5790   16.7950   11.8960 C   0  0  0  0  0  0  0  0  0  0  0  0
   13.6090   16.5240   10.4880 C   0  0  0  0  0  0  0  0  0  0  0  0
   12.4450   16.6400    9.6870 C   0  0  0  0  0  0  0  0  0  0  0  0
   11.2090   17.0440   10.2960 C   0  0  0  0  0  0  0  0  0  0  0  0
   11.1840   17.3230   11.6890 C   0  0  0  0  0  0  0  0  0  0  0  0
   12.3130   17.2150   12.5150 C   0  0  0  0  0  0  0  0  0  0  0  0
    9.9530   17.1490    9.5060 C   0  0  0  0  0  0  0  0  0  0  0  0
    9.2370   18.4730    9.5770 C   0  0  0  0  0  0  0  0  0  0  0  0
   14.7560   16.6440   12.5560 O   0  0  0  0  0  0  0  0  0  0  0  0
    7.9200   18.3490    8.8930 N   0  0  0  0  0  0  0  0  0  0  0  0
   10.0320   19.6340    8.9380 C   0  0  0  0  0  0  0  0  0  0  0  0
    7.0620   19.3870    9.0460 C   0  0  0  0  0  0  0  0  0  0  0  0
    9.9580   19.5790    7.6060 N   0  0  0  0  0  0  0  0  0  0  0  0
   10.7940   20.3350    9.6680 O   0  0  0  0  0  0  0  0  0  0  0  0
   10.7290   20.2850    6.6170 C   0  0  0  0  0  0  0  0  0  0  0  0
   11.8830   19.3290    6.1690 C   0  0  0  0  0  0  0  0  0  0  0  0
   11.2720   17.9250    5.9110 C   0  0  0  0  0  0  0  0  0  0  0  0
   11.5520   17.3940    4.5020 C   0  0  0  0  0  0  0  0  0  0  0  0
   12.5180   16.2080    4.5230 C   0  0  0  0  0  0  0  0  0  0  0  0
    7.2300   20.3300    9.8120 O   0  0  0  0  0  0  0  0  0  0  0  0
    5.6930   19.2860    8.4050 C   0  0  0  0  0  0  0  0  0  0  0  0
    4.6980   19.5130    9.4830 N   0  0  0  0  0  0  0  0  0  0  0  0
   15.8550   17.5160   12.6150 C   0  0  0  0  0  0  0  0  0  0  0  0
   17.0120   16.7230   13.2630 C   0  0  0  0  0  0  0  0  0  0  0  0
   18.1040   17.4340   13.1640 O   0  0  0  0  0  0  0  0  0  0  0  0
   16.9160   15.6390   13.7600 O   0  0  0  0  0  0  0  0  0  0  0  0
   12.2000   17.5440   13.9700 C   0  0  0  0  0  0  0  0  0  0  0  0
   12.8050   17.0000   14.8380 O   0  0  0  0  0  0  0  0  0  0  0  0
   11.4270   18.5500   14.2120 O   0  0  0  0  0  0  0  0  0  0  0  0
    5.6450   20.4210    7.3610 C   0  0  0  0  0  0  0  0  0  0  0  0
    4.3310   20.2240    6.6120 C   0  0  0  0  0  0  0  0  0  0  0  0
    4.3460   19.4330    5.4000 C   0  0  0  0  0  0  0  0  0  0  0  0
    3.1080   19.2460    4.7040 C   0  0  0  0  0  0  0  0  0  0  0  0
    1.9280   19.8490    5.2140 C   0  0  0  0  0  0  0  0  0  0  0  0
    1.9270   20.6200    6.4150 C   0  0  0  0  0  0  0  0  0  0  0  0
    3.1560   20.8170    7.1510 C   0  0  0  0  0  0  0  0  0  0  0  0
    3.9130   18.5020    9.9000 C   0  0  0  0  0  0  0  0  0  0  0  0
    2.8130   18.7700   10.9250 C   0  0  0  0  0  0  0  0  0  0  0  0
    2.0150   17.4970   11.2970 C   0  0  0  0  0  0  0  0  0  0  0  0
    0.6860   17.3290   10.5150 C   0  0  0  0  0  0  0  0  0  0  0  0
   -0.0370   18.2250   10.1140 O   0  0  0  0  0  0  0  0  0  0  0  0
    0.3730   16.0180   10.2890 O   0  0  0  0  0  0  0  0  0  0  0  0
    4.0010   17.3730    9.3520 O   0  0  0  0  0  0  0  0  0  0  0  0
  2  1  2  0
  6  1  1  0
  9  1  1  0
  3  2  1  0
  4  3  2  0
  5  4  1  0
  7  4  1  0
  6  5  2  0
 27  6  1  0
  8  7  1  0
 10  8  1  0
 11  8  1  0
 23  9  1  0
 12 10  1  0
 13 11  1  0
 14 11  2  0
 20 12  2  0
 21 12  1  0
 15 13  1  0
 16 15  1  0
 17 16  1  0
 18 17  1  0
 19 18  1  0
 22 21  1  0
 30 21  1  0
 37 22  1  0
 24 23  1  0
 25 24  2  0
 26 24  1  0
 28 27  1  0
 29 27  2  0
 31 30  1  0
 32 31  2  0
 36 31  1  0
 33 32  1  0
 34 33  2  0
 35 34  1  0
 36 35  2  0
 38 37  1  0
 43 37  2  0
 39 38  1  0
 40 39  1  0
 41 40  1  0
 42 40  2  0
A    1
C1
A    2
C2
A    3
C3
A    4
C4
A    5
C5
A    6
C6
A    7
C7
A    8
C8
A    9
O9
A   10
N10
A   11
C11
A   12
C12
A   13
N13
A   14
O14
A   15
C15
A   16
C16
A   17
C17
A   18
C18
A   19
C19
A   20
O20
A   21
C21
A   22
N22
A   23
C23
A   24
C24
A   25
O25
A   26
O26
A   27
C27
A   28
O28
A   29
O29
A   30
C30
A   31
C31
A   32
C32
A   33
C33
A   34
C34
A   35
C35
A   36
C36
A   37
C37
A   38
C38
A   39
C39
A   40
C40
A   41
O41
A   42
O42
A   43
O43
M  END
>  <Id>  (8) 
1G7G_INX_A_600

>  <ChainId>  (8) 
A

>  <AsymId>  (8) 
B

>  <SeqNum>  (8) 
600

>  <Name>  (8) 
2-(CARBOXYMETHOXY)-5-[(2S)-2-({(2S)-2-[(3-CARBOXYPROPANOYL)AMINO] -3-PHENYLPROPANOYL}AMINO)-3-OXO-3-(PENTYLAMINO)PROPYL]BENZOIC ACID

>  <SystematicName>  (8) 
2-(carboxymethyloxy)-5-[(2S)-2-[[(2S)-2-[(4-hydroxy-4-oxo-butanoyl)amino]-3-phenyl-propanoyl]amino]-3-oxo-3-(pentylamino)propyl]benzoic acid

>  <Synonyms>  (8) 


>  <Type>  (8) 
NON-POLYMER

>  <Formula>  (8) 
C30 H37 N3 O10

>  <ObservedFormula>  (8) 
C30 N3 O10

>  <MolecularWeight>  (8) 
599.629

>  <ModifiedDate>  (8) 
2011-06-04

>  <Parent>  (8) 


>  <OneLetterCode>  (8) 


>  <SubcomponentList>  (8) 


>  <AmbiguousFlag>  (8) 
N

>  <InsertionCode>  (8) 


>  <InstanceId>  (8) 
1G7G_INX_A_600

>  <ChemCompId>  (8) 
INX

>  <PdbId>  (8) 
1G7G

>  <ResidueNumber>  (8) 
600

>  <InChI>  (8) 
InChI=1S/C30H37N3O10/c1-2-3-7-14-31-28(39)22(17-20-10-11-24(43-18-27(37)38)21(15-20)30(41)42)33-29(40)23(16-19-8-5-4-6-9-19)32-25(34)12-13-26(35)36/h4-6,8-11,15,22-23H,2-3,7,12-14,16-18H2,1H3,(H,31,39)(H,32,34)(H,33,40)(H,35,36)(H,37,38)(H,41,42)/t22-,23-/m0/s1

>  <InChIKey>  (8) 
PUAJYWYRZTYQKS-GOTSBHOMSA-N

>  <SMILES>  (8) 
CCCCCNC(=O)[C@H](Cc1ccc(c(c1)C(=O)O)OCC(=O)O)NC(=O)[C@H](Cc2ccccc2)NC(=O)CCC(=O)O

>  <MissingHeavyAtoms>  (8) 
0

>  <Model>  (8) 
1

>  <AltIds>  (8) 


>  <pKI>  (8) 
6.66

>  <ChemblID>  (8) 
CHEMBL175198

>  <standardized_canonical_smiles>  (8) 
CCCCCNC(=O)[C@H](Cc1ccc(OCC(=O)O)c(C(=O)O)c1)NC(=O)[C@H](Cc1ccccc1)NC(=O)CCC(=O)O

$$$$
1GFY_COL_A_301
     RDKit          3D

 18 19  0  0  0  0  0  0  0  0999 V2000
   14.1940   45.0590   17.0060 S   0  0  0  0  0  0  0  0  0  0  0  0
   13.9580   45.5700   18.7020 C   0  0  0  0  0  0  0  0  0  0  0  0
   12.4990   45.5480   18.9700 C   0  0  0  0  0  0  0  0  0  0  0  0
   11.4490   45.2640   18.1670 C   0  0  0  0  0  0  0  0  0  0  0  0
   11.4060   44.6490   16.8120 C   0  0  0  0  0  0  0  0  0  0  0  0
   12.7610   43.9420   16.7200 C   0  0  0  0  0  0  0  0  0  0  0  0
   11.9960   46.2350   20.4790 S   0  0  0  0  0  0  0  0  0  0  0  0
   10.4010   46.0440   20.0200 C   0  0  0  0  0  0  0  0  0  0  0  0
   10.1660   45.5560   18.8180 C   0  0  0  0  0  0  0  0  0  0  0  0
    8.7290   45.4290   18.2840 C   0  0  0  0  0  0  0  0  0  0  0  0
    7.7380   45.4230   18.9570 O   0  0  0  0  0  0  0  0  0  0  0  0
    8.6670   45.3550   17.0130 O   0  0  0  0  0  0  0  0  0  0  0  0
    9.3080   46.5050   20.8510 N   0  0  0  0  0  0  0  0  0  0  0  0
    9.4980   47.2040   21.9760 C   0  0  0  0  0  0  0  0  0  0  0  0
    8.1590   47.6450   22.5460 C   0  0  0  0  0  0  0  0  0  0  0  0
    7.1580   46.7170   22.4000 O   0  0  0  0  0  0  0  0  0  0  0  0
    7.9420   48.5860   23.2340 O   0  0  0  0  0  0  0  0  0  0  0  0
   10.5690   47.2680   22.6010 O   0  0  0  0  0  0  0  0  0  0  0  0
  2  1  1  0
  6  1  1  0
  3  2  1  0
  4  3  2  0
  7  3  1  0
  5  4  1  0
  9  4  1  0
  6  5  1  0
  8  7  1  0
  9  8  2  0
 13  8  1  0
 10  9  1  0
 11 10  1  0
 12 10  2  0
 14 13  1  0
 15 14  1  0
 18 14  2  0
 16 15  1  0
 17 15  2  0
A    1
S1
A    2
C2
A    3
C3
A    4
C4
A    5
C5
A    6
C6
A    7
S13
A    8
C14
A    9
C15
A   10
C16
A   11
O17
A   12
O18
A   13
N19
A   14
C20
A   15
C21
A   16
O22
A   17
O23
A   18
O24
M  END
>  <Id>  (9) 
1GFY_COL_A_301

>  <ChainId>  (9) 
A

>  <AsymId>  (9) 
B

>  <SeqNum>  (9) 
301

>  <Name>  (9) 
2-(OXALYL-AMINO)-4,7-DIHYDRO-5H-THIENO[2,3-C]THIOPYRAN-3-CARBOXYLIC ACID

>  <SystematicName>  (9) 
2-(carboxycarbonylamino)-5,7-dihydro-4H-thieno[5,4-c]thiopyran-3-carboxylic acid

>  <Synonyms>  (9) 


>  <Type>  (9) 
NON-POLYMER

>  <Formula>  (9) 
C10 H9 N O5 S2

>  <ObservedFormula>  (9) 
S2 C10 N O5

>  <MolecularWeight>  (9) 
287.312

>  <ModifiedDate>  (9) 
2011-06-04

>  <Parent>  (9) 


>  <OneLetterCode>  (9) 


>  <SubcomponentList>  (9) 


>  <AmbiguousFlag>  (9) 
N

>  <InsertionCode>  (9) 


>  <InstanceId>  (9) 
1GFY_COL_A_301

>  <ChemCompId>  (9) 
COL

>  <PdbId>  (9) 
1GFY

>  <ResidueNumber>  (9) 
301

>  <InChI>  (9) 
InChI=1S/C10H9NO5S2/c12-7(10(15)16)11-8-6(9(13)14)4-1-2-17-3-5(4)18-8/h1-3H2,(H,11,12)(H,13,14)(H,15,16)

>  <InChIKey>  (9) 
ZPDVRWNOCOREGF-UHFFFAOYSA-N

>  <SMILES>  (9) 
C1CSCc2c1c(c(s2)NC(=O)C(=O)O)C(=O)O

>  <MissingHeavyAtoms>  (9) 
0

>  <Model>  (9) 
1

>  <AltIds>  (9) 


>  <pKI>  (9) 
5.08

>  <ChemblID>  (9) 
CHEMBL139423

>  <standardized_canonical_smiles>  (9) 
O=C(O)C(=O)Nc1sc2c(c1C(=O)O)CCSC2

$$$$
1C85_OBA_A_301
     RDKit          3D

 15 15  0  0  0  0  0  0  0  0999 V2000
   12.4100   45.1770   19.0250 C   0  0  0  0  0  0  0  0  0  0  0  0
   11.4800   45.8550   19.8130 C   0  0  0  0  0  0  0  0  0  0  0  0
   10.1210   45.8720   19.4630 C   0  0  0  0  0  0  0  0  0  0  0  0
    9.7490   45.2960   18.2630 C   0  0  0  0  0  0  0  0  0  0  0  0
   10.6950   44.6340   17.4660 C   0  0  0  0  0  0  0  0  0  0  0  0
   12.0100   44.5500   17.8660 C   0  0  0  0  0  0  0  0  0  0  0  0
    8.3610   45.4000   17.7930 C   0  0  0  0  0  0  0  0  0  0  0  0
    8.3270   45.2570   16.4810 O   0  0  0  0  0  0  0  0  0  0  0  0
    7.4030   45.4890   18.4750 O   0  0  0  0  0  0  0  0  0  0  0  0
    9.1840   46.4720   20.2310 N   0  0  0  0  0  0  0  0  0  0  0  0
    9.2780   47.0290   21.4530 C   0  0  0  0  0  0  0  0  0  0  0  0
   10.3650   47.0510   22.1100 O   0  0  0  0  0  0  0  0  0  0  0  0
    7.8280   47.2610   22.0490 C   0  0  0  0  0  0  0  0  0  0  0  0
    7.3860   48.1360   22.6900 O   0  0  0  0  0  0  0  0  0  0  0  0
    6.9850   46.1480   21.9320 O   0  0  0  0  0  0  0  0  0  0  0  0
  2  1  2  0
  6  1  1  0
  3  2  1  0
  4  3  2  0
 10  3  1  0
  5  4  1  0
  7  4  1  0
  6  5  2  0
  8  7  2  0
  9  7  1  0
 11 10  1  0
 12 11  2  0
 13 11  1  0
 14 13  2  0
 15 13  1  0
A    1
C1
A    2
C2
A    3
C3
A    4
C4
A    5
C5
A    6
C6
A    7
C10
A    8
O11
A    9
O12
A   10
N13
A   11
C14
A   12
O15
A   13
C16
A   14
O17
A   15
O18
M  END
>  <Id>  (10) 
1C85_OBA_A_301

>  <ChainId>  (10) 
A

>  <AsymId>  (10) 
B

>  <SeqNum>  (10) 
301

>  <Name>  (10) 
2-(OXALYL-AMINO)-BENZOIC ACID

>  <SystematicName>  (10) 
2-(carboxycarbonylamino)benzoic acid

>  <Synonyms>  (10) 


>  <Type>  (10) 
NON-POLYMER

>  <Formula>  (10) 
C9 H7 N O5

>  <ObservedFormula>  (10) 
C9 N O5

>  <MolecularWeight>  (10) 
209.156

>  <ModifiedDate>  (10) 
2011-06-04

>  <Parent>  (10) 


>  <OneLetterCode>  (10) 


>  <SubcomponentList>  (10) 


>  <AmbiguousFlag>  (10) 
N

>  <InsertionCode>  (10) 


>  <InstanceId>  (10) 
1C85_OBA_A_301

>  <ChemCompId>  (10) 
OBA

>  <PdbId>  (10) 
1C85

>  <ResidueNumber>  (10) 
301

>  <InChI>  (10) 
InChI=1S/C9H7NO5/c11-7(9(14)15)10-6-4-2-1-3-5(6)8(12)13/h1-4H,(H,10,11)(H,12,13)(H,14,15)

>  <InChIKey>  (10) 
QBYNNSFEMMNINN-UHFFFAOYSA-N

>  <SMILES>  (10) 
c1ccc(c(c1)C(=O)O)NC(=O)C(=O)O

>  <MissingHeavyAtoms>  (10) 
0

>  <Model>  (10) 
1

>  <AltIds>  (10) 


>  <pKI>  (10) 
4.64

>  <ChemblID>  (10) 
CHEMBL139050

>  <standardized_canonical_smiles>  (10) 
O=C(O)C(=O)Nc1ccccc1C(=O)O

$$$$
1C83_OAI_A_301
     RDKit          3D

 18 19  0  0  0  0  0  0  0  0999 V2000
   45.2730   11.8160    2.0900 C   0  0  0  0  0  0  0  0  0  0  0  0
   45.4060   12.8930    2.9080 C   0  0  0  0  0  0  0  0  0  0  0  0
   44.7280   14.0900    2.6170 C   0  0  0  0  0  0  0  0  0  0  0  0
   43.9300   14.1620    1.4510 C   0  0  0  0  0  0  0  0  0  0  0  0
   43.7760   13.0250    0.6270 C   0  0  0  0  0  0  0  0  0  0  0  0
   44.4320   11.8720    0.9520 C   0  0  0  0  0  0  0  0  0  0  0  0
   44.5060   10.6040    0.3000 C   0  0  0  0  0  0  0  0  0  0  0  0
   45.4200    9.8590    1.0550 C   0  0  0  0  0  0  0  0  0  0  0  0
   45.8610   10.5730    2.1030 N   0  0  0  0  0  0  0  0  0  0  0  0
   44.8250   15.1820    3.4280 N   0  0  0  0  0  0  0  0  0  0  0  0
   45.4730   15.3880    4.6380 C   0  0  0  0  0  0  0  0  0  0  0  0
   45.1660   16.7690    5.2480 C   0  0  0  0  0  0  0  0  0  0  0  0
   45.8860   17.4310    5.9040 O   0  0  0  0  0  0  0  0  0  0  0  0
   43.8630   17.1050    5.1330 O   0  0  0  0  0  0  0  0  0  0  0  0
   46.0400   14.4980    5.2770 O   0  0  0  0  0  0  0  0  0  0  0  0
   43.3010   15.4190    1.0660 C   0  0  0  0  0  0  0  0  0  0  0  0
   43.0980   16.2930    1.8560 O   0  0  0  0  0  0  0  0  0  0  0  0
   42.9630   15.4370   -0.2200 O   0  0  0  0  0  0  0  0  0  0  0  0
  2  1  2  0
  6  1  1  0
  9  1  1  0
  3  2  1  0
  4  3  2  0
 10  3  1  0
  5  4  1  0
 16  4  1  0
  6  5  2  0
  7  6  1  0
  8  7  2  0
  9  8  1  0
 11 10  1  0
 12 11  1  0
 15 11  2  0
 13 12  2  0
 14 12  1  0
 17 16  2  0
 18 16  1  0
A    1
C1
A    2
C2
A    3
C3
A    4
C4
A    5
C5
A    6
C6
A    7
C9
A    8
C10
A    9
N11
A   10
N12
A   11
C13
A   12
C14
A   13
O15
A   14
O16
A   15
O17
A   16
C18
A   17
O19
A   18
O20
M  END
>  <Id>  (11) 
1C83_OAI_A_301

>  <ChainId>  (11) 
A

>  <AsymId>  (11) 
B

>  <SeqNum>  (11) 
301

>  <Name>  (11) 
6-(OXALYL-AMINO)-1H-INDOLE-5-CARBOXYLIC ACID

>  <SystematicName>  (11) 
6-(carboxycarbonylamino)-1H-indole-5-carboxylic acid

>  <Synonyms>  (11) 


>  <Type>  (11) 
NON-POLYMER

>  <Formula>  (11) 
C11 H8 N2 O5

>  <ObservedFormula>  (11) 
C11 N2 O5

>  <MolecularWeight>  (11) 
248.192

>  <ModifiedDate>  (11) 
2011-06-04

>  <Parent>  (11) 


>  <OneLetterCode>  (11) 


>  <SubcomponentList>  (11) 


>  <AmbiguousFlag>  (11) 
N

>  <InsertionCode>  (11) 


>  <InstanceId>  (11) 
1C83_OAI_A_301

>  <ChemCompId>  (11) 
OAI

>  <PdbId>  (11) 
1C83

>  <ResidueNumber>  (11) 
301

>  <InChI>  (11) 
InChI=1S/C11H8N2O5/c14-9(11(17)18)13-8-4-7-5(1-2-12-7)3-6(8)10(15)16/h1-4,12H,(H,13,14)(H,15,16)(H,17,18)

>  <InChIKey>  (11) 
AHWMERGBWWROMM-UHFFFAOYSA-N

>  <SMILES>  (11) 
c1c[nH]c2c1cc(c(c2)NC(=O)C(=O)O)C(=O)O

>  <MissingHeavyAtoms>  (11) 
0

>  <Model>  (11) 
1

>  <AltIds>  (11) 


>  <pKI>  (11) 
5.1

>  <ChemblID>  (11) 
CHEMBL342478

>  <standardized_canonical_smiles>  (11) 
O=C(O)C(=O)Nc1cc2[nH]ccc2cc1C(=O)O

$$$$
1C87_OPA_A_301
     RDKit          3D

 18 19  0  0  0  0  0  0  0  0999 V2000
   13.8520   44.7350   16.7810 O   0  0  0  0  0  0  0  0  0  0  0  0
   13.8860   45.2420   18.1090 C   0  0  0  0  0  0  0  0  0  0  0  0
   12.4530   45.3500   18.5400 C   0  0  0  0  0  0  0  0  0  0  0  0
   11.3710   45.0070   17.8060 C   0  0  0  0  0  0  0  0  0  0  0  0
   11.4160   44.1730   16.5640 C   0  0  0  0  0  0  0  0  0  0  0  0
   12.8920   43.6890   16.5220 C   0  0  0  0  0  0  0  0  0  0  0  0
   12.0250   46.1190   20.0430 S   0  0  0  0  0  0  0  0  0  0  0  0
   10.3900   45.9070   19.6500 C   0  0  0  0  0  0  0  0  0  0  0  0
   10.1010   45.3820   18.4480 C   0  0  0  0  0  0  0  0  0  0  0  0
    8.6910   45.2280   17.9250 C   0  0  0  0  0  0  0  0  0  0  0  0
    7.6230   45.4050   18.6800 O   0  0  0  0  0  0  0  0  0  0  0  0
    8.5240   44.8110   16.8090 O   0  0  0  0  0  0  0  0  0  0  0  0
    9.3280   46.2860   20.5150 N   0  0  0  0  0  0  0  0  0  0  0  0
    9.4010   46.9470   21.6870 C   0  0  0  0  0  0  0  0  0  0  0  0
    7.9860   47.3240   22.2660 C   0  0  0  0  0  0  0  0  0  0  0  0
    7.0460   46.5860   22.2500 O   0  0  0  0  0  0  0  0  0  0  0  0
    7.8950   48.5360   22.8840 O   0  0  0  0  0  0  0  0  0  0  0  0
   10.4090   47.1980   22.3170 O   0  0  0  0  0  0  0  0  0  0  0  0
  2  1  1  0
  6  1  1  0
  3  2  1  0
  4  3  2  0
  7  3  1  0
  5  4  1  0
  9  4  1  0
  6  5  1  0
  8  7  1  0
  9  8  2  0
 13  8  1  0
 10  9  1  0
 11 10  1  0
 12 10  2  0
 14 13  1  0
 15 14  1  0
 18 14  2  0
 16 15  1  0
 17 15  2  0
A    1
O1
A    2
C2
A    3
C3
A    4
C4
A    5
C5
A    6
C6
A    7
S13
A    8
C14
A    9
C15
A   10
C16
A   11
O17
A   12
O18
A   13
N19
A   14
C20
A   15
C21
A   16
O22
A   17
O23
A   18
O24
M  END
>  <Id>  (12) 
1C87_OPA_A_301

>  <ChainId>  (12) 
A

>  <AsymId>  (12) 
B

>  <SeqNum>  (12) 
301

>  <Name>  (12) 
2-(OXALYL-AMINO)-4,7-DIHYDRO-5H-THIENO[2,3-C]PYRAN-3-CARBOXYLIC ACID

>  <SystematicName>  (12) 
2-(carboxycarbonylamino)-5,7-dihydro-4H-thieno[5,4-c]pyran-3-carboxylic acid

>  <Synonyms>  (12) 


>  <Type>  (12) 
NON-POLYMER

>  <Formula>  (12) 
C10 H9 N O6 S

>  <ObservedFormula>  (12) 
C10 S N O6

>  <MolecularWeight>  (12) 
271.247

>  <ModifiedDate>  (12) 
2011-06-04

>  <Parent>  (12) 


>  <OneLetterCode>  (12) 


>  <SubcomponentList>  (12) 


>  <AmbiguousFlag>  (12) 
N

>  <InsertionCode>  (12) 


>  <InstanceId>  (12) 
1C87_OPA_A_301

>  <ChemCompId>  (12) 
OPA

>  <PdbId>  (12) 
1C87

>  <ResidueNumber>  (12) 
301

>  <InChI>  (12) 
InChI=1S/C10H9NO6S/c12-7(10(15)16)11-8-6(9(13)14)4-1-2-17-3-5(4)18-8/h1-3H2,(H,11,12)(H,13,14)(H,15,16)

>  <InChIKey>  (12) 
SNNOZMNTPOIDSI-UHFFFAOYSA-N

>  <SMILES>  (12) 
C1COCc2c1c(c(s2)NC(=O)C(=O)O)C(=O)O

>  <MissingHeavyAtoms>  (12) 
0

>  <Model>  (12) 
1

>  <AltIds>  (12) 


>  <pKI>  (12) 
4.85

>  <ChemblID>  (12) 
CHEMBL138806

>  <standardized_canonical_smiles>  (12) 
O=C(O)C(=O)Nc1sc2c(c1C(=O)O)CCOC2

$$$$
1C86_OPA_A_301
     RDKit          3D

 18 19  0  0  0  0  0  0  0  0999 V2000
   13.8890   44.9070   17.3510 O   0  0  0  0  0  0  0  0  0  0  0  0
   13.8400   45.5110   18.6430 C   0  0  0  0  0  0  0  0  0  0  0  0
   12.4690   45.7520   19.0560 C   0  0  0  0  0  0  0  0  0  0  0  0
   11.2930   45.4210   18.1720 C   0  0  0  0  0  0  0  0  0  0  0  0
   11.4470   44.7150   16.9190 C   0  0  0  0  0  0  0  0  0  0  0  0
   12.8020   44.0280   17.0010 C   0  0  0  0  0  0  0  0  0  0  0  0
   11.9750   46.4310   20.5650 S   0  0  0  0  0  0  0  0  0  0  0  0
   10.3030   46.2120   20.1590 C   0  0  0  0  0  0  0  0  0  0  0  0
   10.0950   45.8770   18.7950 C   0  0  0  0  0  0  0  0  0  0  0  0
    8.8010   45.8600   18.3150 C   0  0  0  0  0  0  0  0  0  0  0  0
    7.6300   45.6820   19.0490 O   0  0  0  0  0  0  0  0  0  0  0  0
    8.4260   45.7710   16.9980 O   0  0  0  0  0  0  0  0  0  0  0  0
    9.2820   46.7880   20.9020 N   0  0  0  0  0  0  0  0  0  0  0  0
    9.3020   47.3290   22.1800 C   0  0  0  0  0  0  0  0  0  0  0  0
    8.0870   47.6560   22.8400 C   0  0  0  0  0  0  0  0  0  0  0  0
    6.9390   46.7860   22.7940 O   0  0  0  0  0  0  0  0  0  0  0  0
    7.9340   48.7300   23.6790 O   0  0  0  0  0  0  0  0  0  0  0  0
   10.5730   47.5160   22.8540 O   0  0  0  0  0  0  0  0  0  0  0  0
  2  1  1  0
  6  1  1  0
  3  2  1  0
  4  3  2  0
  7  3  1  0
  5  4  1  0
  9  4  1  0
  6  5  1  0
  8  7  1  0
  9  8  2  0
 13  8  1  0
 10  9  1  0
 11 10  1  0
 12 10  2  0
 14 13  1  0
 15 14  1  0
 18 14  2  0
 16 15  1  0
 17 15  2  0
A    1
O1
A    2
C2
A    3
C3
A    4
C4
A    5
C5
A    6
C6
A    7
S13
A    8
C14
A    9
C15
A   10
C16
A   11
O17
A   12
O18
A   13
N19
A   14
C20
A   15
C21
A   16
O22
A   17
O23
A   18
O24
M  END
>  <Id>  (13) 
1C86_OPA_A_301

>  <ChainId>  (13) 
A

>  <AsymId>  (13) 
B

>  <SeqNum>  (13) 
301

>  <Name>  (13) 
2-(OXALYL-AMINO)-4,7-DIHYDRO-5H-THIENO[2,3-C]PYRAN-3-CARBOXYLIC ACID

>  <SystematicName>  (13) 
2-(carboxycarbonylamino)-5,7-dihydro-4H-thieno[5,4-c]pyran-3-carboxylic acid

>  <Synonyms>  (13) 


>  <Type>  (13) 
NON-POLYMER

>  <Formula>  (13) 
C10 H9 N O6 S

>  <ObservedFormula>  (13) 
C10 S N O6

>  <MolecularWeight>  (13) 
271.247

>  <ModifiedDate>  (13) 
2011-06-04

>  <Parent>  (13) 


>  <OneLetterCode>  (13) 


>  <SubcomponentList>  (13) 


>  <AmbiguousFlag>  (13) 
N

>  <InsertionCode>  (13) 


>  <InstanceId>  (13) 
1C86_OPA_A_301

>  <ChemCompId>  (13) 
OPA

>  <PdbId>  (13) 
1C86

>  <ResidueNumber>  (13) 
301

>  <InChI>  (13) 
InChI=1S/C10H9NO6S/c12-7(10(15)16)11-8-6(9(13)14)4-1-2-17-3-5(4)18-8/h1-3H2,(H,11,12)(H,13,14)(H,15,16)

>  <InChIKey>  (13) 
SNNOZMNTPOIDSI-UHFFFAOYSA-N

>  <SMILES>  (13) 
C1COCc2c1c(c(s2)NC(=O)C(=O)O)C(=O)O

>  <MissingHeavyAtoms>  (13) 
0

>  <Model>  (13) 
1

>  <AltIds>  (13) 


>  <pKI>  (13) 
4.85

>  <ChemblID>  (13) 
CHEMBL138806

>  <standardized_canonical_smiles>  (13) 
O=C(O)C(=O)Nc1sc2c(c1C(=O)O)CCOC2

$$$$
1QXK_429_A_322
     RDKit          3D

 37 38  0  0  0  0  0  0  0  0999 V2000
   34.4080   30.0010   19.7020 C   0  0  0  0  0  0  0  0  0  0  0  0
   33.7610   28.9820   20.4480 C   0  0  0  0  0  0  0  0  0  0  0  0
   32.3340   28.9530   20.5010 C   0  0  0  0  0  0  0  0  0  0  0  0
   31.5840   29.9230   19.8090 C   0  0  0  0  0  0  0  0  0  0  0  0
   32.2310   30.9430   19.0530 C   0  0  0  0  0  0  0  0  0  0  0  0
   33.6480   30.9680   19.0090 C   0  0  0  0  0  0  0  0  0  0  0  0
   34.5820   28.0540   21.0920 O   0  0  0  0  0  0  0  0  0  0  0  0
   31.3770   31.7290   16.7440 C   0  0  0  0  0  0  0  0  0  0  0  0
   30.5880   32.7730   16.0700 N   0  0  0  0  0  0  0  0  0  0  0  0
   30.8620   33.1910   14.8150 C   0  0  0  0  0  0  0  0  0  0  0  0
   30.7230   30.3610   16.4260 C   0  0  0  0  0  0  0  0  0  0  0  0
   29.3920   30.3480   16.6890 N   0  0  0  0  0  0  0  0  0  0  0  0
   28.7460   29.2060   17.3290 C   0  0  0  0  0  0  0  0  0  0  0  0
   27.4550   29.6820   18.0040 C   0  0  0  0  0  0  0  0  0  0  0  0
   26.3390   30.6290   20.0860 C   0  0  0  0  0  0  0  0  0  0  0  0
   27.6500   30.1510   19.4620 C   0  0  0  0  0  0  0  0  0  0  0  0
   25.9830   29.7510   21.1470 O   0  0  0  0  0  0  0  0  0  0  0  0
   31.9830   33.4070   14.3590 O   0  0  0  0  0  0  0  0  0  0  0  0
   29.6010   33.3810   13.9670 C   0  0  0  0  0  0  0  0  0  0  0  0
   34.1860   27.6790   22.3930 C   0  0  0  0  0  0  0  0  0  0  0  0
   31.3670   29.4170   15.9840 O   0  0  0  0  0  0  0  0  0  0  0  0
   31.4210   31.9840   18.2930 C   0  0  0  0  0  0  0  0  0  0  0  0
   35.0890   26.5600   22.8380 C   0  0  0  0  0  0  0  0  0  0  0  0
   36.0330   27.0090   23.6830 O   0  0  0  0  0  0  0  0  0  0  0  0
   34.9880   25.4290   22.4870 O   0  0  0  0  0  0  0  0  0  0  0  0
   24.6570   29.8370   21.6320 C   0  0  0  0  0  0  0  0  0  0  0  0
   23.9960   31.1030   21.8360 C   0  0  0  0  0  0  0  0  0  0  0  0
   22.6710   31.1650   22.3230 C   0  0  0  0  0  0  0  0  0  0  0  0
   21.9780   29.9710   22.6200 C   0  0  0  0  0  0  0  0  0  0  0  0
   22.5950   28.7110   22.4340 C   0  0  0  0  0  0  0  0  0  0  0  0
   23.9400   28.6200   21.9410 C   0  0  0  0  0  0  0  0  0  0  0  0
   24.5450   27.2720   21.7650 C   0  0  0  0  0  0  0  0  0  0  0  0
   24.6140   26.4980   22.6920 O   0  0  0  0  0  0  0  0  0  0  0  0
   24.9990   26.9780   20.5380 O   0  0  0  0  0  0  0  0  0  0  0  0
   25.5920   25.6820   20.3250 C   0  0  0  0  0  0  0  0  0  0  0  0
   21.8470   27.5910   22.7510 O   0  0  0  0  0  0  0  0  0  0  0  0
   35.7900   30.0380   19.6450 O   0  0  0  0  0  0  0  0  0  0  0  0
  2  1  2  0
  6  1  1  0
 37  1  1  0
  3  2  1  0
  7  2  1  0
  4  3  2  0
  5  4  1  0
  6  5  2  0
 22  5  1  0
 20  7  1  0
  9  8  1  0
 11  8  1  0
 22  8  1  0
 10  9  1  0
 18 10  2  0
 19 10  1  0
 12 11  1  0
 21 11  2  0
 13 12  1  0
 14 13  1  0
 16 14  1  0
 16 15  1  0
 17 15  1  0
 26 17  1  0
 23 20  1  0
 24 23  1  0
 25 23  2  0
 27 26  2  0
 31 26  1  0
 28 27  1  0
 29 28  2  0
 30 29  1  0
 31 30  2  0
 36 30  1  0
 32 31  1  0
 33 32  2  0
 34 32  1  0
 35 34  1  0
A    1
C1
A    2
C2
A    3
C3
A    4
C4
A    5
C5
A    6
C6
A    7
O5
A    8
C9
A    9
N1
A   10
C10
A   11
C11
A   12
N2
A   13
C12
A   14
C13
A   15
C14
A   16
C15
A   17
O1
A   18
O4
A   19
C23
A   20
C8
A   21
O8
A   22
C7
A   23
C24
A   24
O6
A   25
O7
A   26
C32
A   27
C33
A   28
C34
A   29
C35
A   30
C36
A   31
C37
A   32
C38
A   33
O11
A   34
O12
A   35
C39
A   36
O13
A   37
O2
M  END
>  <Id>  (14) 
1QXK_429_A_322

>  <ChainId>  (14) 
A

>  <AsymId>  (14) 
B

>  <SeqNum>  (14) 
322

>  <Name>  (14) 
2-{4-[2-ACETYLAMINO-3-(4-CARBOXYMETHOXY-3-HYDROXY-PHENYL)-PROPIONYLAMINO]-BUTOXY}-6-HYDROXY-BENZOIC ACID METHYL ESTER

>  <SystematicName>  (14) 
2-[4-[(2S)-2-acetamido-3-[4-(3-hydroxy-2-methoxycarbonyl-phenoxy)butylamino]-3-oxo-propyl]-2-hydroxy-phenoxy]ethanoic acid

>  <Synonyms>  (14) 
COMPOUND 20

>  <Type>  (14) 
NON-POLYMER

>  <Formula>  (14) 
C25 H30 N2 O10

>  <ObservedFormula>  (14) 
C25 N2 O10

>  <MolecularWeight>  (14) 
518.513

>  <ModifiedDate>  (14) 
2011-06-04

>  <Parent>  (14) 


>  <OneLetterCode>  (14) 


>  <SubcomponentList>  (14) 


>  <AmbiguousFlag>  (14) 
N

>  <InsertionCode>  (14) 


>  <InstanceId>  (14) 
1QXK_429_A_322

>  <ChemCompId>  (14) 
429

>  <PdbId>  (14) 
1QXK

>  <ResidueNumber>  (14) 
322

>  <InChI>  (14) 
InChI=1S/C25H30N2O10/c1-15(28)27-17(12-16-8-9-20(19(30)13-16)37-14-22(31)32)24(33)26-10-3-4-11-36-21-7-5-6-18(29)23(21)25(34)35-2/h5-9,13,17,29-30H,3-4,10-12,14H2,1-2H3,(H,26,33)(H,27,28)(H,31,32)/t17-/m0/s1

>  <InChIKey>  (14) 
QEANZBIJPCAREV-KRWDZBQOSA-N

>  <SMILES>  (14) 
CC(=O)N[C@@H](Cc1ccc(c(c1)O)OCC(=O)O)C(=O)NCCCCOc2cccc(c2C(=O)OC)O

>  <MissingHeavyAtoms>  (14) 
0

>  <Model>  (14) 
1

>  <AltIds>  (14) 


>  <pKI>  (14) 
5.05

>  <ChemblID>  (14) 
CHEMBL341103

>  <standardized_canonical_smiles>  (14) 
COC(=O)c1c(O)cccc1OCCCCNC(=O)[C@H](Cc1ccc(OCC(=O)O)c(O)c1)NC(C)=O

$$$$
1Q1M_234_A_322
     RDKit          3D

 30 32  0  0  0  0  0  0  0  0999 V2000
   33.0460   31.0940   18.4330 C   0  0  0  0  0  0  0  0  0  0  0  0
   32.5060   30.4810   19.6090 C   0  0  0  0  0  0  0  0  0  0  0  0
   31.1140   30.6200   19.8430 C   0  0  0  0  0  0  0  0  0  0  0  0
   30.2740   31.3340   18.9520 C   0  0  0  0  0  0  0  0  0  0  0  0
   30.8390   31.9260   17.7920 C   0  0  0  0  0  0  0  0  0  0  0  0
   32.2250   31.8120   17.5260 C   0  0  0  0  0  0  0  0  0  0  0  0
   33.2940   29.7050   20.6230 C   0  0  0  0  0  0  0  0  0  0  0  0
   32.6890   29.1670   21.7470 O   0  0  0  0  0  0  0  0  0  0  0  0
   33.7090   28.5200   22.4770 N   0  0  0  0  0  0  0  0  0  0  0  0
   34.8870   28.6610   21.8140 C   0  0  0  0  0  0  0  0  0  0  0  0
   34.6190   29.4330   20.6050 C   0  0  0  0  0  0  0  0  0  0  0  0
   36.2540   28.1260   22.2250 C   0  0  0  0  0  0  0  0  0  0  0  0
   37.2240   28.8720   22.2250 O   0  0  0  0  0  0  0  0  0  0  0  0
   36.2880   26.8000   22.5800 O   0  0  0  0  0  0  0  0  0  0  0  0
   28.8090   31.4860   19.1960 C   0  0  0  0  0  0  0  0  0  0  0  0
   24.7490   29.9960   21.4990 C   0  0  0  0  0  0  0  0  0  0  0  0
   23.9270   31.1860   21.5410 C   0  0  0  0  0  0  0  0  0  0  0  0
   22.5400   31.1190   21.8360 C   0  0  0  0  0  0  0  0  0  0  0  0
   21.9370   29.8670   22.0990 C   0  0  0  0  0  0  0  0  0  0  0  0
   22.7000   28.6690   22.0720 C   0  0  0  0  0  0  0  0  0  0  0  0
   24.1110   28.7080   21.7780 C   0  0  0  0  0  0  0  0  0  0  0  0
   24.8700   27.4200   21.7670 C   0  0  0  0  0  0  0  0  0  0  0  0
   24.9340   26.7280   22.7660 O   0  0  0  0  0  0  0  0  0  0  0  0
   25.4600   27.0980   20.6020 O   0  0  0  0  0  0  0  0  0  0  0  0
   26.2110   25.8660   20.5310 C   0  0  0  0  0  0  0  0  0  0  0  0
   22.0090   27.4920   22.3470 O   0  0  0  0  0  0  0  0  0  0  0  0
   26.1550   30.0390   21.2020 O   0  0  0  0  0  0  0  0  0  0  0  0
   26.6500   31.1500   20.4670 C   0  0  0  0  0  0  0  0  0  0  0  0
   28.1310   30.9790   20.2660 C   0  0  0  0  0  0  0  0  0  0  0  0
   34.3520   31.0140   18.1420 F   0  0  0  0  0  0  0  0  0  0  0  0
  2  1  2  0
  6  1  1  0
 30  1  1  0
  3  2  1  0
  7  2  1  0
  4  3  2  0
  5  4  1  0
 15  4  1  0
  6  5  2  0
  8  7  1  0
 11  7  2  0
  9  8  1  0
 10  9  2  0
 11 10  1  0
 12 10  1  0
 13 12  1  0
 14 12  2  0
 29 15  2  0
 17 16  2  0
 21 16  1  0
 27 16  1  0
 18 17  1  0
 19 18  2  0
 20 19  1  0
 21 20  2  0
 26 20  1  0
 22 21  1  0
 23 22  2  0
 24 22  1  0
 25 24  1  0
 28 27  1  0
 29 28  1  0
A    1
C1
A    2
C2
A    3
C3
A    4
C4
A    5
C5
A    6
C6
A    7
C7
A    8
O12
A    9
N13
A   10
C14
A   11
C15
A   12
C16
A   13
O1
A   14
O2
A   15
C8
A   16
C32
A   17
C33
A   18
C34
A   19
C35
A   20
C36
A   21
C37
A   22
C38
A   23
O11
A   24
O4
A   25
C39
A   26
O14
A   27
O3
A   28
C40
A   29
C41
A   30
F1
M  END
>  <Id>  (15) 
1Q1M_234_A_322

>  <ChainId>  (15) 
A

>  <AsymId>  (15) 
B

>  <SeqNum>  (15) 
322

>  <Name>  (15) 
5-{2-FLUORO-5-[3-(3-HYDROXY-2-METHOXYCARBONYL-PHENOXY)-PROPENYL]-PHENYL}-ISOXAZOLE-3-CARBOXYLIC ACID

>  <SystematicName>  (15) 
5-[2-fluoro-5-[(E)-3-(3-hydroxy-2-methoxycarbonyl-phenoxy)prop-1-enyl]phenyl]-1,2-oxazole-3-carboxylic acid

>  <Synonyms>  (15) 
COMPOUND 9

>  <Type>  (15) 
NON-POLYMER

>  <Formula>  (15) 
C21 H16 F N O7

>  <ObservedFormula>  (15) 
C21 F N O7

>  <MolecularWeight>  (15) 
413.353

>  <ModifiedDate>  (15) 
2011-06-04

>  <Parent>  (15) 


>  <OneLetterCode>  (15) 


>  <SubcomponentList>  (15) 


>  <AmbiguousFlag>  (15) 
N

>  <InsertionCode>  (15) 


>  <InstanceId>  (15) 
1Q1M_234_A_322

>  <ChemCompId>  (15) 
234

>  <PdbId>  (15) 
1Q1M

>  <ResidueNumber>  (15) 
322

>  <InChI>  (15) 
InChI=1S/C21H16FNO7/c1-28-21(27)19-16(24)5-2-6-17(19)29-9-3-4-12-7-8-14(22)13(10-12)18-11-15(20(25)26)23-30-18/h2-8,10-11,24H,9H2,1H3,(H,25,26)/b4-3+

>  <InChIKey>  (15) 
QKHWJUMLYAYZFS-ONEGZZNKSA-N

>  <SMILES>  (15) 
COC(=O)c1c(cccc1OC\C=C\c2ccc(c(c2)c3cc(no3)C(=O)O)F)O

>  <MissingHeavyAtoms>  (15) 
0

>  <Model>  (15) 
1

>  <AltIds>  (15) 


>  <pKI>  (15) 
5.17

>  <ChemblID>  (15) 
CHEMBL117869

>  <standardized_canonical_smiles>  (15) 
COC(=O)c1c(O)cccc1OC/C=C/c1ccc(F)c(-c2cc(C(=O)O)no2)c1

$$$$
1ECV_878_A_301
     RDKit          3D

 16 16  0  0  0  0  0  0  0  0999 V2000
   12.5800   45.0950   19.1910 C   0  0  0  0  0  0  0  0  0  0  0  0
   11.6470   45.7120   20.0210 C   0  0  0  0  0  0  0  0  0  0  0  0
   10.3050   45.6960   19.6290 C   0  0  0  0  0  0  0  0  0  0  0  0
    9.9240   45.1170   18.4090 C   0  0  0  0  0  0  0  0  0  0  0  0
   10.8440   44.4610   17.6030 C   0  0  0  0  0  0  0  0  0  0  0  0
   12.1690   44.4310   18.0190 C   0  0  0  0  0  0  0  0  0  0  0  0
    8.4990   45.1420   17.9810 C   0  0  0  0  0  0  0  0  0  0  0  0
    7.5840   45.2690   18.7380 O   0  0  0  0  0  0  0  0  0  0  0  0
    8.2750   44.9050   16.6860 O   0  0  0  0  0  0  0  0  0  0  0  0
    9.3060   46.1420   20.4340 N   0  0  0  0  0  0  0  0  0  0  0  0
    9.3470   46.8630   21.5730 C   0  0  0  0  0  0  0  0  0  0  0  0
   10.3890   47.1340   22.1730 O   0  0  0  0  0  0  0  0  0  0  0  0
    7.9330   47.2600   22.1520 C   0  0  0  0  0  0  0  0  0  0  0  0
    6.9810   46.5360   22.1490 O   0  0  0  0  0  0  0  0  0  0  0  0
    7.8610   48.4170   22.7810 O   0  0  0  0  0  0  0  0  0  0  0  0
   13.5490   43.3360   16.8780 I   0  0  0  0  0  0  0  0  0  0  0  0
  2  1  2  0
  6  1  1  0
  3  2  1  0
  4  3  2  0
 10  3  1  0
  5  4  1  0
  7  4  1  0
  6  5  2  0
 16  6  1  0
  8  7  2  0
  9  7  1  0
 11 10  1  0
 12 11  2  0
 13 11  1  0
 14 13  2  0
 15 13  1  0
A    1
C1
A    2
C2
A    3
C3
A    4
C4
A    5
C5
A    6
C6
A    7
C10
A    8
O11
A    9
O12
A   10
N13
A   11
C14
A   12
O15
A   13
C16
A   14
O17
A   15
O18
A   16
I19
M  END
>  <Id>  (16) 
1ECV_878_A_301

>  <ChainId>  (16) 
A

>  <AsymId>  (16) 
E

>  <SeqNum>  (16) 
301

>  <Name>  (16) 
5-IODO-2-(OXALYL-AMINO)-BENZOIC ACID

>  <SystematicName>  (16) 
2-(carboxycarbonylamino)-5-iodo-benzoic acid

>  <Synonyms>  (16) 
NOVO NORDISK A/S COMPOUND

>  <Type>  (16) 
NON-POLYMER

>  <Formula>  (16) 
C9 H6 I N O5

>  <ObservedFormula>  (16) 
C9 I N O5

>  <MolecularWeight>  (16) 
335.052

>  <ModifiedDate>  (16) 
2011-06-04

>  <Parent>  (16) 


>  <OneLetterCode>  (16) 


>  <SubcomponentList>  (16) 


>  <AmbiguousFlag>  (16) 
N

>  <InsertionCode>  (16) 


>  <InstanceId>  (16) 
1ECV_878_A_301

>  <ChemCompId>  (16) 
878

>  <PdbId>  (16) 
1ECV

>  <ResidueNumber>  (16) 
301

>  <InChI>  (16) 
InChI=1S/C9H6INO5/c10-4-1-2-6(5(3-4)8(13)14)11-7(12)9(15)16/h1-3H,(H,11,12)(H,13,14)(H,15,16)

>  <InChIKey>  (16) 
SHSWHSQPJKMCPN-UHFFFAOYSA-N

>  <SMILES>  (16) 
c1cc(c(cc1I)C(=O)O)NC(=O)C(=O)O

>  <MissingHeavyAtoms>  (16) 
0

>  <Model>  (16) 
1

>  <AltIds>  (16) 


>  <pKI>  (16) 
4.85

>  <ChemblID>  (16) 
CHEMBL336908

>  <standardized_canonical_smiles>  (16) 
O=C(O)C(=O)Nc1ccc(I)cc1C(=O)O

$$$$
2CM7_IZD_A_1299
     RDKit          3D

 34 36  0  0  0  0  0  0  0  0999 V2000
   16.7560   -1.4220   -0.4900 C   0  0  0  0  0  0  0  0  0  0  0  0
   17.4780   -1.9420    0.7130 C   0  0  0  0  0  0  0  0  0  0  0  0
   16.9200   -1.2760    1.9380 C   0  0  0  0  0  0  0  0  0  0  0  0
   15.7130   -0.7120    1.7690 N   0  0  0  0  0  0  0  0  0  0  0  0
   15.0880   -1.1180    0.1110 S   0  0  0  0  0  0  0  0  0  0  0  0
   14.3300    0.1280   -0.6880 O   0  0  0  0  0  0  0  0  0  0  0  0
   14.2690   -2.5450    0.0980 O   0  0  0  0  0  0  0  0  0  0  0  0
   17.4860   -1.2290    3.0250 O   0  0  0  0  0  0  0  0  0  0  0  0
   16.7540   -2.2920   -1.7380 C   0  0  0  0  0  0  0  0  0  0  0  0
   16.8020   -3.7550   -1.6280 C   0  0  0  0  0  0  0  0  0  0  0  0
   16.7910   -4.5710   -2.8470 C   0  0  0  0  0  0  0  0  0  0  0  0
   16.7210   -3.9070   -4.1690 C   0  0  0  0  0  0  0  0  0  0  0  0
   16.7080   -2.4540   -4.2630 C   0  0  0  0  0  0  0  0  0  0  0  0
   16.7190   -1.6480   -3.0550 C   0  0  0  0  0  0  0  0  0  0  0  0
   16.7000   -4.7240   -5.4230 C   0  0  0  0  0  0  0  0  0  0  0  0
   17.9020   -4.4400   -6.3270 C   0  0  0  0  0  0  0  0  0  0  0  0
   19.1440   -5.0350   -5.7140 C   0  0  0  0  0  0  0  0  0  0  0  0
   19.8780   -4.3810   -4.9910 O   0  0  0  0  0  0  0  0  0  0  0  0
   19.3790   -6.3290   -5.9240 N   0  0  0  0  0  0  0  0  0  0  0  0
   17.6330   -5.0260   -7.6450 N   0  0  0  0  0  0  0  0  0  0  0  0
   18.4700   -4.6570   -8.6110 C   0  0  0  0  0  0  0  0  0  0  0  0
   18.2690   -5.2610   -9.9800 C   0  0  0  0  0  0  0  0  0  0  0  0
   19.3690   -3.8640   -8.3870 O   0  0  0  0  0  0  0  0  0  0  0  0
   18.3060   -4.2250  -11.0260 N   0  0  0  0  0  0  0  0  0  0  0  0
   19.3730   -6.2750  -10.2500 C   0  0  0  0  0  0  0  0  0  0  0  0
   19.0120   -7.2610  -11.3200 C   0  0  0  0  0  0  0  0  0  0  0  0
   18.3320   -8.5130  -10.9580 C   0  0  0  0  0  0  0  0  0  0  0  0
   17.9810   -9.4780  -11.9960 C   0  0  0  0  0  0  0  0  0  0  0  0
   18.3050   -9.1930  -13.4040 C   0  0  0  0  0  0  0  0  0  0  0  0
   18.9900   -7.9430  -13.7700 C   0  0  0  0  0  0  0  0  0  0  0  0
   19.3470   -6.9780  -12.7290 C   0  0  0  0  0  0  0  0  0  0  0  0
   17.1950   -3.8710  -11.6780 C   0  0  0  0  0  0  0  0  0  0  0  0
   16.1030   -4.3900  -11.3950 O   0  0  0  0  0  0  0  0  0  0  0  0
   17.2840   -2.8710  -12.8180 C   0  0  0  0  0  0  0  0  0  0  0  0
  2  1  1  0
  5  1  1  0
  9  1  1  0
  3  2  1  0
  4  3  1  0
  8  3  2  0
  5  4  1  0
  6  5  2  0
  7  5  2  0
 10  9  2  0
 14  9  1  0
 11 10  1  0
 12 11  2  0
 13 12  1  0
 15 12  1  0
 14 13  2  0
 16 15  1  0
 17 16  1  0
 20 16  1  0
 18 17  2  0
 19 17  1  0
 21 20  1  0
 22 21  1  0
 23 21  2  0
 24 22  1  0
 25 22  1  0
 32 24  1  0
 26 25  1  0
 27 26  2  0
 31 26  1  0
 28 27  1  0
 29 28  2  0
 30 29  1  0
 31 30  2  0
 33 32  2  0
 34 32  1  0
A    1
C1
A    2
C2
A    3
C3
A    4
N4
A    5
S5
A    6
O6
A    7
O7
A    8
O9
A    9
C11
A   10
C12
A   11
C13
A   12
C14
A   13
C15
A   14
C16
A   15
C21
A   16
C22
A   17
C25
A   18
O26
A   19
N27
A   20
N45
A   21
C47
A   22
C48
A   23
O49
A   24
N51
A   25
C4
A   26
C5
A   27
C30
A   28
C31
A   29
C6
A   30
C33
A   31
C34
A   32
C67
A   33
O70
A   34
C71
M  END
>  <Id>  (17) 
2CM7_IZD_A_1299

>  <ChainId>  (17) 
A

>  <AsymId>  (17) 
B

>  <SeqNum>  (17) 
1299

>  <Name>  (17) 
ISOTHIAZOLIDINONE ANALOG

>  <SystematicName>  (17) 
(2S)-2-[[(2S)-2-acetamido-3-phenyl-propanoyl]amino]-3-[4-[(5S)-1,1,3-trioxo-1,2-thiazolidin-5-yl]phenyl]propanamide

>  <Synonyms>  (17) 


>  <Type>  (17) 
NON-POLYMER

>  <Formula>  (17) 
C23 H26 N4 O6 S

>  <ObservedFormula>  (17) 
C23 S N4 O6

>  <MolecularWeight>  (17) 
486.541

>  <ModifiedDate>  (17) 
2011-06-04

>  <Parent>  (17) 


>  <OneLetterCode>  (17) 


>  <SubcomponentList>  (17) 


>  <AmbiguousFlag>  (17) 


>  <InsertionCode>  (17) 


>  <InstanceId>  (17) 
2CM7_IZD_A_1299

>  <ChemCompId>  (17) 
IZD

>  <PdbId>  (17) 
2CM7

>  <ResidueNumber>  (17) 
1299

>  <InChI>  (17) 
InChI=1S/C23H26N4O6S/c1-14(28)25-19(12-15-5-3-2-4-6-15)23(31)26-18(22(24)30)11-16-7-9-17(10-8-16)20-13-21(29)27-34(20,32)33/h2-10,18-20H,11-13H2,1H3,(H2,24,30)(H,25,28)(H,26,31)(H,27,29)/t18-,19-,20-/m0/s1

>  <InChIKey>  (17) 
UILYPHAKDBTKQV-UFYCRDLUSA-N

>  <SMILES>  (17) 
CC(=O)N[C@@H](Cc1ccccc1)C(=O)N[C@@H](Cc2ccc(cc2)[C@@H]3CC(=O)NS3(=O)=O)C(=O)N

>  <MissingHeavyAtoms>  (17) 
0

>  <Model>  (17) 
1

>  <AltIds>  (17) 


>  <pKI>  (17) 
6.74

>  <ChemblID>  (17) 
CHEMBL382311

>  <standardized_canonical_smiles>  (17) 
CC(=O)N[C@@H](Cc1ccccc1)C(=O)N[C@@H](Cc1ccc([C@@H]2CC(=O)NS2(=O)=O)cc1)C(N)=O

$$$$
2H4G_694_A_300
     RDKit          3D

 21 22  0  0  0  0  0  0  0  0999 V2000
   47.2730   11.0890    0.5060 C   0  0  0  0  0  0  0  0  0  0  0  0
   47.5210    9.7950   -0.0230 C   0  0  0  0  0  0  0  0  0  0  0  0
   46.4320    9.0000   -0.4500 C   0  0  0  0  0  0  0  0  0  0  0  0
   45.0960    9.4830   -0.3500 C   0  0  0  0  0  0  0  0  0  0  0  0
   44.8470   10.7810    0.1840 C   0  0  0  0  0  0  0  0  0  0  0  0
   45.9290   11.6070    0.6230 C   0  0  0  0  0  0  0  0  0  0  0  0
   45.6610   12.9690    1.1830 C   0  0  0  0  0  0  0  0  0  0  0  0
   46.1050   13.5880    2.3580 C   0  0  0  0  0  0  0  0  0  0  0  0
   45.6020   14.9310    2.5310 C   0  0  0  0  0  0  0  0  0  0  0  0
   44.7930   15.3070    1.4600 C   0  0  0  0  0  0  0  0  0  0  0  0
   44.6340   14.0460    0.3100 S   0  0  0  0  0  0  0  0  0  0  0  0
   44.1040   16.7080    1.2510 C   0  0  0  0  0  0  0  0  0  0  0  0
   43.9300   17.4410    2.2800 O   0  0  0  0  0  0  0  0  0  0  0  0
   43.7790   16.9910    0.0600 O   0  0  0  0  0  0  0  0  0  0  0  0
   45.8820   15.7650    3.6040 O   0  0  0  0  0  0  0  0  0  0  0  0
   47.1130   16.5260    3.4360 C   0  0  0  0  0  0  0  0  0  0  0  0
   47.4820   17.1650    4.7870 C   0  0  0  0  0  0  0  0  0  0  0  0
   46.5480   17.2540    5.6340 O   0  0  0  0  0  0  0  0  0  0  0  0
   48.6830   17.5320    4.8860 O   0  0  0  0  0  0  0  0  0  0  0  0
   47.2540   12.7920    3.6390 Br  0  0  0  0  0  0  0  0  0  0  0  0
   46.6420    7.7490   -0.9680 O   0  0  0  0  0  0  0  0  0  0  0  0
  2  1  2  0
  6  1  1  0
  3  2  1  0
  4  3  2  0
 21  3  1  0
  5  4  1  0
  6  5  2  0
  7  6  1  0
  8  7  2  0
 11  7  1  0
  9  8  1  0
 20  8  1  0
 10  9  2  0
 15  9  1  0
 11 10  1  0
 12 10  1  0
 13 12  1  0
 14 12  2  0
 16 15  1  0
 17 16  1  0
 18 17  1  0
 19 17  2  0
A    1
C1
A    2
C2
A    3
C3
A    4
C4
A    5
C5
A    6
C6
A    7
C7
A    8
C8
A    9
C9
A   10
C10
A   11
S1
A   12
C11
A   13
O1
A   14
O2
A   15
O3
A   16
C12
A   17
C13
A   18
O4
A   19
O5
A   20
BR1
A   21
O6
M  END
>  <Id>  (18) 
2H4G_694_A_300

>  <ChainId>  (18) 
A

>  <AsymId>  (18) 
B

>  <SeqNum>  (18) 
300

>  <Name>  (18) 
4-BROMO-3-(CARBOXYMETHOXY)-5-(4-HYDROXYPHENYL)THIOPHENE-2-CARBOXYLIC ACID

>  <SystematicName>  (18) 
4-bromo-3-(carboxymethyloxy)-5-(4-hydroxyphenyl)thiophene-2-carboxylic acid

>  <Synonyms>  (18) 


>  <Type>  (18) 
NON-POLYMER

>  <Formula>  (18) 
C13 H9 Br O6 S

>  <ObservedFormula>  (18) 
Br C13 S O6

>  <MolecularWeight>  (18) 
373.176

>  <ModifiedDate>  (18) 
2011-06-04

>  <Parent>  (18) 


>  <OneLetterCode>  (18) 


>  <SubcomponentList>  (18) 


>  <AmbiguousFlag>  (18) 
N

>  <InsertionCode>  (18) 


>  <InstanceId>  (18) 
2H4G_694_A_300

>  <ChemCompId>  (18) 
694

>  <PdbId>  (18) 
2H4G

>  <ResidueNumber>  (18) 
300

>  <InChI>  (18) 
InChI=1S/C13H9BrO6S/c14-9-10(20-5-8(16)17)12(13(18)19)21-11(9)6-1-3-7(15)4-2-6/h1-4,15H,5H2,(H,16,17)(H,18,19)

>  <InChIKey>  (18) 
QZWUMLLRAVGBHC-UHFFFAOYSA-N

>  <SMILES>  (18) 
c1cc(ccc1c2c(c(c(s2)C(=O)O)OCC(=O)O)Br)O

>  <MissingHeavyAtoms>  (18) 
0

>  <Model>  (18) 
1

>  <AltIds>  (18) 


>  <pKI>  (18) 
6.52

>  <ChemblID>  (18) 
CHEMBL214502

>  <standardized_canonical_smiles>  (18) 
O=C(O)COc1c(C(=O)O)sc(-c2ccc(O)cc2)c1Br

$$$$
2H4K_509_A_300
     RDKit          3D

 20 21  0  0  0  0  0  0  0  0999 V2000
   46.3160    8.7190    0.0150 C   0  0  0  0  0  0  0  0  0  0  0  0
   45.0090    9.2180   -0.0350 C   0  0  0  0  0  0  0  0  0  0  0  0
   44.7480   10.5400    0.3400 C   0  0  0  0  0  0  0  0  0  0  0  0
   45.8110   11.3700    0.7390 C   0  0  0  0  0  0  0  0  0  0  0  0
   47.1210   10.8600    0.7890 C   0  0  0  0  0  0  0  0  0  0  0  0
   47.3750    9.5350    0.4210 C   0  0  0  0  0  0  0  0  0  0  0  0
   45.5390   12.7420    1.1450 C   0  0  0  0  0  0  0  0  0  0  0  0
   46.0050   13.4030    2.2410 C   0  0  0  0  0  0  0  0  0  0  0  0
   45.5610   14.7340    2.3980 C   0  0  0  0  0  0  0  0  0  0  0  0
   44.7080   15.0700    1.3730 C   0  0  0  0  0  0  0  0  0  0  0  0
   44.4990   13.7740    0.2710 S   0  0  0  0  0  0  0  0  0  0  0  0
   43.9960   16.4520    1.1670 C   0  0  0  0  0  0  0  0  0  0  0  0
   43.5570   16.6510   -0.0020 O   0  0  0  0  0  0  0  0  0  0  0  0
   43.9340   17.2410    2.1580 O   0  0  0  0  0  0  0  0  0  0  0  0
   45.9320   15.5320    3.4260 O   0  0  0  0  0  0  0  0  0  0  0  0
   47.1380   16.2780    3.2020 C   0  0  0  0  0  0  0  0  0  0  0  0
   47.5240   17.0040    4.5010 C   0  0  0  0  0  0  0  0  0  0  0  0
   48.5950   17.6430    4.4450 O   0  0  0  0  0  0  0  0  0  0  0  0
   46.7690   16.9050    5.4950 O   0  0  0  0  0  0  0  0  0  0  0  0
   47.1990   12.6480    3.4640 Br  0  0  0  0  0  0  0  0  0  0  0  0
  2  1  2  0
  6  1  1  0
  3  2  1  0
  4  3  2  0
  5  4  1  0
  7  4  1  0
  6  5  2  0
  8  7  2  0
 11  7  1  0
  9  8  1  0
 20  8  1  0
 10  9  2  0
 15  9  1  0
 11 10  1  0
 12 10  1  0
 13 12  2  0
 14 12  1  0
 16 15  1  0
 17 16  1  0
 18 17  2  0
 19 17  1  0
A    1
C1
A    2
C2
A    3
C3
A    4
C4
A    5
C5
A    6
C6
A    7
C7
A    8
C8
A    9
C9
A   10
C10
A   11
S1
A   12
C11
A   13
O1
A   14
O2
A   15
O3
A   16
C12
A   17
C13
A   18
O4
A   19
O5
A   20
BR1
M  END
>  <Id>  (19) 
2H4K_509_A_300

>  <ChainId>  (19) 
A

>  <AsymId>  (19) 
B

>  <SeqNum>  (19) 
300

>  <Name>  (19) 
4-BROMO-3-(CARBOXYMETHOXY)-5-PHENYLTHIOPHENE-2-CARBOXYLIC ACID

>  <SystematicName>  (19) 
4-bromo-3-(carboxymethyloxy)-5-phenyl-thiophene-2-carboxylic acid

>  <Synonyms>  (19) 


>  <Type>  (19) 
NON-POLYMER

>  <Formula>  (19) 
C13 H9 Br O5 S

>  <ObservedFormula>  (19) 
Br C13 S O5

>  <MolecularWeight>  (19) 
357.177

>  <ModifiedDate>  (19) 
2011-06-04

>  <Parent>  (19) 


>  <OneLetterCode>  (19) 


>  <SubcomponentList>  (19) 


>  <AmbiguousFlag>  (19) 
N

>  <InsertionCode>  (19) 


>  <InstanceId>  (19) 
2H4K_509_A_300

>  <ChemCompId>  (19) 
509

>  <PdbId>  (19) 
2H4K

>  <ResidueNumber>  (19) 
300

>  <InChI>  (19) 
InChI=1S/C13H9BrO5S/c14-9-10(19-6-8(15)16)12(13(17)18)20-11(9)7-4-2-1-3-5-7/h1-5H,6H2,(H,15,16)(H,17,18)

>  <InChIKey>  (19) 
MVDWLRCTJUXCCB-UHFFFAOYSA-N

>  <SMILES>  (19) 
c1ccc(cc1)c2c(c(c(s2)C(=O)O)OCC(=O)O)Br

>  <MissingHeavyAtoms>  (19) 
0

>  <Model>  (19) 
1

>  <AltIds>  (19) 


>  <pKI>  (19) 
5.62

>  <ChemblID>  (19) 
CHEMBL213758

>  <standardized_canonical_smiles>  (19) 
O=C(O)COc1c(C(=O)O)sc(-c2ccccc2)c1Br

$$$$
2QBP_527_A_800
     RDKit          3D

 37 40  0  0  0  0  0  0  0  0999 V2000
   44.5640   14.2390    0.6740 S   0  0  0  0  0  0  0  0  0  0  0  0
   44.7660   15.6490    1.7560 C   0  0  0  0  0  0  0  0  0  0  0  0
   45.6900   15.3960    2.6670 C   0  0  0  0  0  0  0  0  0  0  0  0
   46.2550   14.0410    2.5740 C   0  0  0  0  0  0  0  0  0  0  0  0
   45.8210   13.2870    1.5520 C   0  0  0  0  0  0  0  0  0  0  0  0
   44.0600   16.8790    1.4690 C   0  0  0  0  0  0  0  0  0  0  0  0
   43.5980   16.8930    0.3080 O   0  0  0  0  0  0  0  0  0  0  0  0
   43.9340   17.8230    2.2800 O   0  0  0  0  0  0  0  0  0  0  0  0
   46.1250   11.9050    1.1290 C   0  0  0  0  0  0  0  0  0  0  0  0
   47.4420   11.3150    1.3100 C   0  0  0  0  0  0  0  0  0  0  0  0
   47.6400    9.9460    0.9420 C   0  0  0  0  0  0  0  0  0  0  0  0
   46.5390    9.1680    0.3780 C   0  0  0  0  0  0  0  0  0  0  0  0
   45.2230    9.7500    0.1790 C   0  0  0  0  0  0  0  0  0  0  0  0
   45.0420   11.1270    0.5390 C   0  0  0  0  0  0  0  0  0  0  0  0
   47.3890   13.4840    3.9420 Br  0  0  0  0  0  0  0  0  0  0  0  0
   45.9800   16.2840    3.6070 O   0  0  0  0  0  0  0  0  0  0  0  0
   47.1930   16.9880    3.4380 C   0  0  0  0  0  0  0  0  0  0  0  0
   47.4320   17.6890    4.7000 C   0  0  0  0  0  0  0  0  0  0  0  0
   48.5780   18.1510    4.8510 O   0  0  0  0  0  0  0  0  0  0  0  0
   46.5110   17.7930    5.5420 O   0  0  0  0  0  0  0  0  0  0  0  0
   48.9040    9.4960    1.1630 N   0  0  0  0  0  0  0  0  0  0  0  0
   49.1900    8.1380    1.5130 C   0  0  0  0  0  0  0  0  0  0  0  0
   50.7090    7.9840    1.5980 C   0  0  0  0  0  0  0  0  0  0  0  0
   51.1460    6.6380    2.1280 C   0  0  0  0  0  0  0  0  0  0  0  0
   50.3910    6.3890    3.3570 N   0  0  0  0  0  0  0  0  0  0  0  0
   48.9270    6.4400    3.3730 C   0  0  0  0  0  0  0  0  0  0  0  0
   48.4990    7.7770    2.8260 C   0  0  0  0  0  0  0  0  0  0  0  0
   51.1020    5.4460    4.5910 S   0  0  0  0  0  0  0  0  0  0  0  0
   50.2210    5.5670    5.7300 O   0  0  0  0  0  0  0  0  0  0  0  0
   52.4790    5.8920    4.6940 O   0  0  0  0  0  0  0  0  0  0  0  0
   50.8960    3.7760    3.9330 C   0  0  0  0  0  0  0  0  0  0  0  0
   51.2570    2.7890    5.0020 C   0  0  0  0  0  0  0  0  0  0  0  0
   52.6630    2.4580    5.1260 C   0  0  0  0  0  0  0  0  0  0  0  0
   53.0480    1.5950    6.2220 C   0  0  0  0  0  0  0  0  0  0  0  0
   52.0250    1.0640    7.1210 C   0  0  0  0  0  0  0  0  0  0  0  0
   50.6230    1.4160    6.9910 C   0  0  0  0  0  0  0  0  0  0  0  0
   50.2150    2.2910    5.9050 C   0  0  0  0  0  0  0  0  0  0  0  0
  2  1  1  0
  5  1  1  0
  3  2  2  0
  6  2  1  0
  4  3  1  0
 16  3  1  0
  5  4  2  0
 15  4  1  0
  9  5  1  0
  7  6  2  0
  8  6  1  0
 10  9  2  0
 14  9  1  0
 11 10  1  0
 12 11  2  0
 21 11  1  0
 13 12  1  0
 14 13  2  0
 17 16  1  0
 18 17  1  0
 19 18  2  0
 20 18  1  0
 22 21  1  0
 23 22  1  0
 27 22  1  0
 24 23  1  0
 25 24  1  0
 26 25  1  0
 28 25  1  0
 27 26  1  0
 29 28  2  0
 30 28  2  0
 31 28  1  0
 32 31  1  0
 33 32  2  0
 37 32  1  0
 34 33  1  0
 35 34  2  0
 36 35  1  0
 37 36  2  0
A    1
S1
A    2
C2
A    3
C3
A    4
C4
A    5
C5
A    6
C6
A    7
O7
A    8
O8
A    9
C9
A   10
C10
A   11
C11
A   12
C12
A   13
C13
A   14
C14
A   15
BR19
A   16
O20
A   17
C21
A   18
C22
A   19
O25
A   20
O26
A   21
N29
A   22
C30
A   23
C31
A   24
C32
A   25
N33
A   26
C34
A   27
C35
A   28
S46
A   29
O47
A   30
O48
A   31
C49
A   32
C50
A   33
C53
A   34
C54
A   35
C55
A   36
C56
A   37
C57
M  END
>  <Id>  (20) 
2QBP_527_A_800

>  <ChainId>  (20) 
A

>  <AsymId>  (20) 
B

>  <SeqNum>  (20) 
800

>  <Name>  (20) 
5-(3-{[1-(BENZYLSULFONYL)PIPERIDIN-4-YL]AMINO}PHENYL)-4-BROMO-3-(CARBOXYMETHOXY)THIOPHENE-2-CARBOXYLIC ACID

>  <SystematicName>  (20) 
4-bromo-3-(carboxymethyloxy)-5-[3-[[1-(phenylmethylsulfonyl)piperidin-4-yl]amino]phenyl]thiophene-2-carboxylic acid

>  <Synonyms>  (20) 


>  <Type>  (20) 
NON-POLYMER

>  <Formula>  (20) 
C25 H25 Br N2 O7 S2

>  <ObservedFormula>  (20) 
Br S2 C25 N2 O7

>  <MolecularWeight>  (20) 
609.509

>  <ModifiedDate>  (20) 
2011-06-04

>  <Parent>  (20) 


>  <OneLetterCode>  (20) 


>  <SubcomponentList>  (20) 


>  <AmbiguousFlag>  (20) 
N

>  <InsertionCode>  (20) 


>  <InstanceId>  (20) 
2QBP_527_A_800

>  <ChemCompId>  (20) 
527

>  <PdbId>  (20) 
2QBP

>  <ResidueNumber>  (20) 
800

>  <InChI>  (20) 
InChI=1S/C25H25BrN2O7S2/c26-21-22(35-14-20(29)30)24(25(31)32)36-23(21)17-7-4-8-19(13-17)27-18-9-11-28(12-10-18)37(33,34)15-16-5-2-1-3-6-16/h1-8,13,18,27H,9-12,14-15H2,(H,29,30)(H,31,32)

>  <InChIKey>  (20) 
FEPAAIQAIYOLJA-UHFFFAOYSA-N

>  <SMILES>  (20) 
c1ccc(cc1)CS(=O)(=O)N2CCC(CC2)Nc3cccc(c3)c4c(c(c(s4)C(=O)O)OCC(=O)O)Br

>  <MissingHeavyAtoms>  (20) 
0

>  <Model>  (20) 
1

>  <AltIds>  (20) 


>  <pKI>  (20) 
8.4

>  <ChemblID>  (20) 
CHEMBL541214

>  <standardized_canonical_smiles>  (20) 
O=C(O)COc1c(C(=O)O)sc(-c2cccc(NC3CCN(S(=O)(=O)Cc4ccccc4)CC3)c2)c1Br

$$$$
2QBQ_4B3_A_800
     RDKit          3D

 31 33  0  0  0  0  0  0  0  0999 V2000
   44.6110   14.0460    0.5060 S   0  0  0  0  0  0  0  0  0  0  0  0
   44.7660   15.4390    1.5570 C   0  0  0  0  0  0  0  0  0  0  0  0
   45.6230   15.1800    2.5630 C   0  0  0  0  0  0  0  0  0  0  0  0
   46.1880   13.8140    2.5260 C   0  0  0  0  0  0  0  0  0  0  0  0
   45.7320   13.0860    1.4880 C   0  0  0  0  0  0  0  0  0  0  0  0
   44.0300   16.6790    1.2250 C   0  0  0  0  0  0  0  0  0  0  0  0
   43.5770   16.7220    0.0620 O   0  0  0  0  0  0  0  0  0  0  0  0
   43.8610   17.6020    2.0480 O   0  0  0  0  0  0  0  0  0  0  0  0
   46.0430   11.6520    1.1530 C   0  0  0  0  0  0  0  0  0  0  0  0
   47.3940   11.1220    1.2180 C   0  0  0  0  0  0  0  0  0  0  0  0
   47.6340    9.7720    0.8020 C   0  0  0  0  0  0  0  0  0  0  0  0
   46.5410    8.9630    0.2800 C   0  0  0  0  0  0  0  0  0  0  0  0
   45.1890    9.4480    0.2030 C   0  0  0  0  0  0  0  0  0  0  0  0
   44.9770   10.8000    0.6540 C   0  0  0  0  0  0  0  0  0  0  0  0
   47.4150   13.2710    3.8780 Br  0  0  0  0  0  0  0  0  0  0  0  0
   45.9150   16.0160    3.5510 O   0  0  0  0  0  0  0  0  0  0  0  0
   47.0570   16.8320    3.3680 C   0  0  0  0  0  0  0  0  0  0  0  0
   47.4380   17.4450    4.7040 C   0  0  0  0  0  0  0  0  0  0  0  0
   46.6490   17.4000    5.6750 O   0  0  0  0  0  0  0  0  0  0  0  0
   48.5590   17.9810    4.7670 O   0  0  0  0  0  0  0  0  0  0  0  0
   48.9250    9.3140    0.9620 N   0  0  0  0  0  0  0  0  0  0  0  0
   49.2920    7.9430    1.3340 C   0  0  0  0  0  0  0  0  0  0  0  0
   50.8110    7.7520    1.2640 C   0  0  0  0  0  0  0  0  0  0  0  0
   51.2020    6.3090    1.6550 C   0  0  0  0  0  0  0  0  0  0  0  0
   50.5160    5.8480    2.9610 C   0  0  0  0  0  0  0  0  0  0  0  0
   49.0100    6.1590    3.0880 C   0  0  0  0  0  0  0  0  0  0  0  0
   48.7280    7.6260    2.7220 C   0  0  0  0  0  0  0  0  0  0  0  0
   52.7280    6.2000    1.8710 C   0  0  0  0  0  0  0  0  0  0  0  0
   50.8260    5.3220    0.5100 C   0  0  0  0  0  0  0  0  0  0  0  0
   48.7000    5.9580    4.5790 C   0  0  0  0  0  0  0  0  0  0  0  0
   48.0950    5.2090    2.2450 C   0  0  0  0  0  0  0  0  0  0  0  0
  2  1  1  0
  5  1  1  0
  3  2  2  0
  6  2  1  0
  4  3  1  0
 16  3  1  0
  5  4  2  0
 15  4  1  0
  9  5  1  0
  7  6  2  0
  8  6  1  0
 10  9  2  0
 14  9  1  0
 11 10  1  0
 12 11  2  0
 21 11  1  0
 13 12  1  0
 14 13  2  0
 17 16  1  0
 18 17  1  0
 19 18  1  0
 20 18  2  0
 22 21  1  0
 23 22  1  0
 27 22  1  0
 24 23  1  0
 25 24  1  0
 28 24  1  0
 29 24  1  0
 26 25  1  0
 27 26  1  0
 30 26  1  0
 31 26  1  0
A    1
S1
A    2
C2
A    3
C3
A    4
C4
A    5
C5
A    6
C6
A    7
O7
A    8
O8
A    9
C9
A   10
C10
A   11
C11
A   12
C12
A   13
C13
A   14
C14
A   15
BR1
A   16
O20
A   17
C21
A   18
C22
A   19
O25
A   20
O26
A   21
N27
A   22
C28
A   23
C30
A   24
C31
A   25
C32
A   26
C33
A   27
C34
A   28
C42
A   29
C46
A   30
C50
A   31
C54
M  END
>  <Id>  (21) 
2QBQ_4B3_A_800

>  <ChainId>  (21) 
A

>  <AsymId>  (21) 
B

>  <SeqNum>  (21) 
800

>  <Name>  (21) 
4-BROMO-3-(CARBOXYMETHOXY)-5-{3-[(3,3,5,5-TETRAMETHYLCYCLOHEXYL)AMINO]PHENYL}THIOPHENE-2-CARBOXYLIC ACID

>  <SystematicName>  (21) 
4-bromo-3-(carboxymethyloxy)-5-[3-[(3,3,5,5-tetramethylcyclohexyl)amino]phenyl]thiophene-2-carboxylic acid

>  <Synonyms>  (21) 


>  <Type>  (21) 
NON-POLYMER

>  <Formula>  (21) 
C23 H28 Br N O5 S

>  <ObservedFormula>  (21) 
Br S C23 N O5

>  <MolecularWeight>  (21) 
510.441

>  <ModifiedDate>  (21) 
2011-06-04

>  <Parent>  (21) 


>  <OneLetterCode>  (21) 


>  <SubcomponentList>  (21) 


>  <AmbiguousFlag>  (21) 
N

>  <InsertionCode>  (21) 


>  <InstanceId>  (21) 
2QBQ_4B3_A_800

>  <ChemCompId>  (21) 
4B3

>  <PdbId>  (21) 
2QBQ

>  <ResidueNumber>  (21) 
800

>  <InChI>  (21) 
InChI=1S/C23H28BrNO5S/c1-22(2)9-15(10-23(3,4)12-22)25-14-7-5-6-13(8-14)19-17(24)18(30-11-16(26)27)20(31-19)21(28)29/h5-8,15,25H,9-12H2,1-4H3,(H,26,27)(H,28,29)

>  <InChIKey>  (21) 
OSQARHVGUZHHGT-UHFFFAOYSA-N

>  <SMILES>  (21) 
CC1(CC(CC(C1)(C)C)Nc2cccc(c2)c3c(c(c(s3)C(=O)O)OCC(=O)O)Br)C

>  <MissingHeavyAtoms>  (21) 
0

>  <Model>  (21) 
1

>  <AltIds>  (21) 


>  <pKI>  (21) 
7.52

>  <ChemblID>  (21) 
CHEMBL243942

>  <standardized_canonical_smiles>  (21) 
CC1(C)CC(Nc2cccc(-c3sc(C(=O)O)c(OCC(=O)O)c3Br)c2)CC(C)(C)C1

$$$$
2QBS_024_A_800
     RDKit          3D

 27 29  0  0  0  0  0  0  0  0999 V2000
   44.6510   14.0740    0.6210 S   0  0  0  0  0  0  0  0  0  0  0  0
   44.7900   15.4820    1.5710 C   0  0  0  0  0  0  0  0  0  0  0  0
   45.6940   15.2460    2.6400 C   0  0  0  0  0  0  0  0  0  0  0  0
   46.2290   13.9270    2.6200 C   0  0  0  0  0  0  0  0  0  0  0  0
   45.7340   13.1350    1.5470 C   0  0  0  0  0  0  0  0  0  0  0  0
   44.0570   16.6430    1.2480 C   0  0  0  0  0  0  0  0  0  0  0  0
   43.4980   16.6800    0.1500 O   0  0  0  0  0  0  0  0  0  0  0  0
   43.9810   17.5810    2.0360 O   0  0  0  0  0  0  0  0  0  0  0  0
   46.0160   11.7110    1.1830 C   0  0  0  0  0  0  0  0  0  0  0  0
   47.2610   11.0370    1.4450 C   0  0  0  0  0  0  0  0  0  0  0  0
   47.4050    9.6640    1.0720 C   0  0  0  0  0  0  0  0  0  0  0  0
   46.3290    8.9560    0.4400 C   0  0  0  0  0  0  0  0  0  0  0  0
   45.0950    9.6130    0.1730 C   0  0  0  0  0  0  0  0  0  0  0  0
   44.9490   10.9800    0.5490 C   0  0  0  0  0  0  0  0  0  0  0  0
   47.4770   13.3320    3.9450 Br  0  0  0  0  0  0  0  0  0  0  0  0
   46.0630   16.1740    3.6490 O   0  0  0  0  0  0  0  0  0  0  0  0
   47.2490   16.9320    3.4120 C   0  0  0  0  0  0  0  0  0  0  0  0
   47.6510   17.5920    4.7270 C   0  0  0  0  0  0  0  0  0  0  0  0
   46.8770   17.5250    5.6970 O   0  0  0  0  0  0  0  0  0  0  0  0
   48.7320   18.1660    4.7830 O   0  0  0  0  0  0  0  0  0  0  0  0
   48.6210    8.9650    1.3420 N   0  0  0  0  0  0  0  0  0  0  0  0
   49.1550    7.7650    1.8570 C   0  0  0  0  0  0  0  0  0  0  0  0
   50.6800    7.8220    2.0380 C   0  0  0  0  0  0  0  0  0  0  0  0
   51.1580    6.4520    2.5800 C   0  0  0  0  0  0  0  0  0  0  0  0
   50.4280    6.0460    3.8930 C   0  0  0  0  0  0  0  0  0  0  0  0
   48.8790    6.1190    3.7780 C   0  0  0  0  0  0  0  0  0  0  0  0
   48.4240    7.4700    3.1930 C   0  0  0  0  0  0  0  0  0  0  0  0
  2  1  1  0
  5  1  1  0
  3  2  2  0
  6  2  1  0
  4  3  1  0
 16  3  1  0
  5  4  2  0
 15  4  1  0
  9  5  1  0
  7  6  2  0
  8  6  1  0
 10  9  2  0
 14  9  1  0
 11 10  1  0
 12 11  2  0
 21 11  1  0
 13 12  1  0
 14 13  2  0
 17 16  1  0
 18 17  1  0
 19 18  1  0
 20 18  2  0
 22 21  1  0
 23 22  1  0
 27 22  1  0
 24 23  1  0
 25 24  1  0
 26 25  1  0
 27 26  1  0
A    1
S1
A    2
C2
A    3
C3
A    4
C4
A    5
C5
A    6
C6
A    7
O7
A    8
O8
A    9
C9
A   10
C10
A   11
C11
A   12
C12
A   13
C13
A   14
C14
A   15
BR19
A   16
O20
A   17
C21
A   18
C22
A   19
O25
A   20
O26
A   21
N27
A   22
C28
A   23
C30
A   24
C31
A   25
C32
A   26
C33
A   27
C34
M  END
>  <Id>  (22) 
2QBS_024_A_800

>  <ChainId>  (22) 
A

>  <AsymId>  (22) 
B

>  <SeqNum>  (22) 
800

>  <Name>  (22) 
4-BROMO-3-(CARBOXYMETHOXY)-5-[3-(CYCLOHEXYLAMINO)PHENYL]THIOPHENE-2-CARBOXYLIC ACID

>  <SystematicName>  (22) 
4-bromo-3-(carboxymethyloxy)-5-[3-(cyclohexylamino)phenyl]thiophene-2-carboxylic acid

>  <Synonyms>  (22) 


>  <Type>  (22) 
NON-POLYMER

>  <Formula>  (22) 
C19 H20 Br N O5 S

>  <ObservedFormula>  (22) 
Br S C19 N O5

>  <MolecularWeight>  (22) 
454.335

>  <ModifiedDate>  (22) 
2011-06-04

>  <Parent>  (22) 


>  <OneLetterCode>  (22) 


>  <SubcomponentList>  (22) 


>  <AmbiguousFlag>  (22) 
N

>  <InsertionCode>  (22) 


>  <InstanceId>  (22) 
2QBS_024_A_800

>  <ChemCompId>  (22) 
024

>  <PdbId>  (22) 
2QBS

>  <ResidueNumber>  (22) 
800

>  <InChI>  (22) 
InChI=1S/C19H20BrNO5S/c20-15-16(26-10-14(22)23)18(19(24)25)27-17(15)11-5-4-8-13(9-11)21-12-6-2-1-3-7-12/h4-5,8-9,12,21H,1-3,6-7,10H2,(H,22,23)(H,24,25)

>  <InChIKey>  (22) 
RXDVFLTWXCTCEX-UHFFFAOYSA-N

>  <SMILES>  (22) 
c1cc(cc(c1)NC2CCCCC2)c3c(c(c(s3)C(=O)O)OCC(=O)O)Br

>  <MissingHeavyAtoms>  (22) 
0

>  <Model>  (22) 
1

>  <AltIds>  (22) 


>  <pKI>  (22) 
6.68

>  <ChemblID>  (22) 
CHEMBL243940

>  <standardized_canonical_smiles>  (22) 
O=C(O)COc1c(C(=O)O)sc(-c2cccc(NC3CCCCC3)c2)c1Br

$$$$
2QBR_910_A_800
     RDKit          3D

 28 30  0  0  0  0  0  0  0  0999 V2000
   44.9240   14.3230    0.6640 S   0  0  0  0  0  0  0  0  0  0  0  0
   45.0960   15.6460    1.7300 C   0  0  0  0  0  0  0  0  0  0  0  0
   45.9700   15.2890    2.7910 C   0  0  0  0  0  0  0  0  0  0  0  0
   46.4440   13.9560    2.6530 C   0  0  0  0  0  0  0  0  0  0  0  0
   45.9450   13.2820    1.5090 C   0  0  0  0  0  0  0  0  0  0  0  0
   44.4140   16.8590    1.4850 C   0  0  0  0  0  0  0  0  0  0  0  0
   44.4470   17.7800    2.2990 O   0  0  0  0  0  0  0  0  0  0  0  0
   43.7890   16.9570    0.4240 O   0  0  0  0  0  0  0  0  0  0  0  0
   46.2010   11.8870    1.0260 C   0  0  0  0  0  0  0  0  0  0  0  0
   47.5180   11.3150    1.0600 C   0  0  0  0  0  0  0  0  0  0  0  0
   47.7370    9.9830    0.6010 C   0  0  0  0  0  0  0  0  0  0  0  0
   46.6290    9.2030    0.0970 C   0  0  0  0  0  0  0  0  0  0  0  0
   45.3100    9.7660    0.0560 C   0  0  0  0  0  0  0  0  0  0  0  0
   45.1080   11.1050    0.5240 C   0  0  0  0  0  0  0  0  0  0  0  0
   47.6320   13.1870    3.9130 Br  0  0  0  0  0  0  0  0  0  0  0  0
   46.3660   16.1140    3.9000 O   0  0  0  0  0  0  0  0  0  0  0  0
   47.5820   16.8460    3.7100 C   0  0  0  0  0  0  0  0  0  0  0  0
   47.9420   17.5920    4.9940 C   0  0  0  0  0  0  0  0  0  0  0  0
   47.1630   17.5430    5.9630 O   0  0  0  0  0  0  0  0  0  0  0  0
   49.0030   18.2220    5.0270 O   0  0  0  0  0  0  0  0  0  0  0  0
   49.0320    9.5000    0.6690 N   0  0  0  0  0  0  0  0  0  0  0  0
   49.4040    8.0820    0.8060 C   0  0  0  0  0  0  0  0  0  0  0  0
   49.4490    7.6120    2.2450 C   0  0  0  0  0  0  0  0  0  0  0  0
   48.2330    7.1950    2.8950 C   0  0  0  0  0  0  0  0  0  0  0  0
   48.2680    6.7450    4.2530 C   0  0  0  0  0  0  0  0  0  0  0  0
   49.5260    6.7190    4.9440 C   0  0  0  0  0  0  0  0  0  0  0  0
   50.7460    7.1350    4.3000 C   0  0  0  0  0  0  0  0  0  0  0  0
   50.7060    7.5850    2.9370 C   0  0  0  0  0  0  0  0  0  0  0  0
  2  1  1  0
  5  1  1  0
  3  2  2  0
  6  2  1  0
  4  3  1  0
 16  3  1  0
  5  4  2  0
 15  4  1  0
  9  5  1  0
  7  6  1  0
  8  6  2  0
 10  9  2  0
 14  9  1  0
 11 10  1  0
 12 11  2  0
 21 11  1  0
 13 12  1  0
 14 13  2  0
 17 16  1  0
 18 17  1  0
 19 18  1  0
 20 18  2  0
 22 21  1  0
 23 22  1  0
 24 23  2  0
 28 23  1  0
 25 24  1  0
 26 25  2  0
 27 26  1  0
 28 27  2  0
A    1
S1
A    2
C2
A    3
C3
A    4
C4
A    5
C5
A    6
C6
A    7
O7
A    8
O8
A    9
C9
A   10
C10
A   11
C11
A   12
C12
A   13
C13
A   14
C14
A   15
BR19
A   16
O20
A   17
C21
A   18
C22
A   19
O25
A   20
O26
A   21
N29
A   22
C30
A   23
C31
A   24
C34
A   25
C35
A   26
C36
A   27
C37
A   28
C38
M  END
>  <Id>  (23) 
2QBR_910_A_800

>  <ChainId>  (23) 
A

>  <AsymId>  (23) 
B

>  <SeqNum>  (23) 
800

>  <Name>  (23) 
5-[3-(BENZYLAMINO)PHENYL]-4-BROMO-3-(CARBOXYMETHOXY)THIOPHENE-2-CARBOXYLIC ACID

>  <SystematicName>  (23) 
4-bromo-3-(carboxymethyloxy)-5-[3-(phenylmethylamino)phenyl]thiophene-2-carboxylic acid

>  <Synonyms>  (23) 


>  <Type>  (23) 
NON-POLYMER

>  <Formula>  (23) 
C20 H16 Br N O5 S

>  <ObservedFormula>  (23) 
Br S C20 N O5

>  <MolecularWeight>  (23) 
462.314

>  <ModifiedDate>  (23) 
2011-06-04

>  <Parent>  (23) 


>  <OneLetterCode>  (23) 


>  <SubcomponentList>  (23) 


>  <AmbiguousFlag>  (23) 
N

>  <InsertionCode>  (23) 


>  <InstanceId>  (23) 
2QBR_910_A_800

>  <ChemCompId>  (23) 
910

>  <PdbId>  (23) 
2QBR

>  <ResidueNumber>  (23) 
800

>  <InChI>  (23) 
InChI=1S/C20H16BrNO5S/c21-16-17(27-11-15(23)24)19(20(25)26)28-18(16)13-7-4-8-14(9-13)22-10-12-5-2-1-3-6-12/h1-9,22H,10-11H2,(H,23,24)(H,25,26)

>  <InChIKey>  (23) 
XEQPGVUGYAUMSA-UHFFFAOYSA-N

>  <SMILES>  (23) 
c1ccc(cc1)CNc2cccc(c2)c3c(c(c(s3)C(=O)O)OCC(=O)O)Br

>  <MissingHeavyAtoms>  (23) 
0

>  <Model>  (23) 
1

>  <AltIds>  (23) 


>  <pKI>  (23) 
6.33

>  <ChemblID>  (23) 
CHEMBL243731

>  <standardized_canonical_smiles>  (23) 
O=C(O)COc1c(C(=O)O)sc(-c2cccc(NCc3ccccc3)c2)c1Br

$$$$
1BZC_TPI_A_902
     RDKit          3D

 29 30  0  0  0  0  0  0  0  0999 V2000
  -20.5280   58.4430   12.0690 P   0  0  0  0  0  0  0  0  0  0  0  0
  -20.4410   56.9790   11.4600 O   0  0  0  0  0  0  0  0  0  0  0  0
  -21.3340   59.3230   11.1980 O   0  0  0  0  0  0  0  0  0  0  0  0
  -19.0690   59.0410   12.2460 O   0  0  0  0  0  0  0  0  0  0  0  0
  -21.3330   58.3720   13.6690 C   0  0  0  0  0  0  0  0  0  0  0  0
  -21.4420   59.6270   14.1640 F   0  0  0  0  0  0  0  0  0  0  0  0
  -22.5530   57.8710   13.4660 F   0  0  0  0  0  0  0  0  0  0  0  0
  -20.8740   56.1310   14.8470 C   0  0  0  0  0  0  0  0  0  0  0  0
  -20.6170   57.5140   14.7150 C   0  0  0  0  0  0  0  0  0  0  0  0
  -19.7250   58.1450   15.6010 C   0  0  0  0  0  0  0  0  0  0  0  0
  -19.1000   57.4250   16.6180 C   0  0  0  0  0  0  0  0  0  0  0  0
  -18.7540   55.3570   17.8170 C   0  0  0  0  0  0  0  0  0  0  0  0
  -18.9980   53.9910   18.0000 C   0  0  0  0  0  0  0  0  0  0  0  0
  -19.8620   53.3130   17.1080 C   0  0  0  0  0  0  0  0  0  0  0  0
  -20.4890   54.0160   16.0500 C   0  0  0  0  0  0  0  0  0  0  0  0
  -20.2440   55.3950   15.8790 C   0  0  0  0  0  0  0  0  0  0  0  0
  -19.3650   56.0590   16.7660 C   0  0  0  0  0  0  0  0  0  0  0  0
  -18.3240   53.2680   19.1560 C   0  0  0  0  0  0  0  0  0  0  0  0
  -17.6080   53.9250   19.9000 O   0  0  0  0  0  0  0  0  0  0  0  0
  -18.5390   51.8320   19.3520 N   0  0  0  0  0  0  0  0  0  0  0  0
  -17.8240   51.2530   20.5000 C   0  0  0  0  0  0  0  0  0  0  0  0
  -16.3230   51.4180   20.5180 C   0  0  0  0  0  0  0  0  0  0  0  0
  -15.7240   52.0710   21.6630 N   0  0  0  0  0  0  0  0  0  0  0  0
  -15.6210   50.9870   19.6170 O   0  0  0  0  0  0  0  0  0  0  0  0
  -18.1420   49.7480   20.6410 C   0  0  0  0  0  0  0  0  0  0  0  0
  -19.6280   49.5050   20.9440 C   0  0  0  0  0  0  0  0  0  0  0  0
  -19.8660   48.0310   21.0820 C   0  0  0  0  0  0  0  0  0  0  0  0
  -21.1390   47.6770   21.2330 O   0  0  0  0  0  0  0  0  0  0  0  0
  -18.9550   47.2040   21.0680 O   0  0  0  0  0  0  0  0  0  0  0  0
  2  1  1  0
  3  1  1  0
  4  1  2  0
  5  1  1  0
  6  5  1  0
  7  5  1  0
  9  5  1  0
  9  8  2  0
 16  8  1  0
 10  9  1  0
 11 10  2  0
 17 11  1  0
 13 12  1  0
 17 12  2  0
 14 13  2  0
 18 13  1  0
 15 14  1  0
 16 15  2  0
 17 16  1  0
 19 18  2  0
 20 18  1  0
 21 20  1  0
 22 21  1  0
 25 21  1  0
 23 22  1  0
 24 22  2  0
 26 25  1  0
 27 26  1  0
 28 27  2  0
 29 27  1  0
A    1
P
A    2
O1
A    3
O2
A    4
O3
A    5
C1
A    6
F1
A    7
F2
A    8
C2
A    9
C3
A   10
C4
A   11
C5
A   12
C6
A   13
C7
A   14
C8
A   15
C9
A   16
C10
A   17
C11
A   18
C12
A   19
O4
A   20
N1
A   21
C13
A   22
C14
A   23
N2
A   24
O5
A   25
C15
A   26
C16
A   27
C17
A   28
O6
A   29
O7
M  END
>  <Id>  (24) 
1BZC_TPI_A_902

>  <ChainId>  (24) 
A

>  <AsymId>  (24) 
B

>  <SeqNum>  (24) 
902

>  <Name>  (24) 
4-CARBAMOYL-4-{[6-(DIFLUORO-PHOSPHONO-METHYL)-NAPHTHALENE-2-CARBONYL]-AMINO}-BUTYRIC ACID

>  <SystematicName>  (24) 
(4S)-5-amino-4-[[6-(difluoro-phosphono-methyl)naphthalen-2-yl]carbonylamino]-5-oxo-pentanoic acid

>  <Synonyms>  (24) 


>  <Type>  (24) 
NON-POLYMER

>  <Formula>  (24) 
C17 H17 F2 N2 O7 P

>  <ObservedFormula>  (24) 
P C17 F2 N2 O7

>  <MolecularWeight>  (24) 
430.297

>  <ModifiedDate>  (24) 
2011-06-04

>  <Parent>  (24) 


>  <OneLetterCode>  (24) 


>  <SubcomponentList>  (24) 


>  <AmbiguousFlag>  (24) 
N

>  <InsertionCode>  (24) 


>  <InstanceId>  (24) 
1BZC_TPI_A_902

>  <ChemCompId>  (24) 
TPI

>  <PdbId>  (24) 
1BZC

>  <ResidueNumber>  (24) 
902

>  <InChI>  (24) 
InChI=1S/C17H17F2N2O7P/c18-17(19,29(26,27)28)12-4-3-9-7-11(2-1-10(9)8-12)16(25)21-13(15(20)24)5-6-14(22)23/h1-4,7-8,13H,5-6H2,(H2,20,24)(H,21,25)(H,22,23)(H2,26,27,28)/t13-/m0/s1

>  <InChIKey>  (24) 
OWWCIKSGGKYNHT-ZDUSSCGKSA-N

>  <SMILES>  (24) 
c1cc(cc2c1cc(cc2)C(F)(F)P(=O)(O)O)C(=O)N[C@@H](CCC(=O)O)C(=O)N

>  <MissingHeavyAtoms>  (24) 
0

>  <Model>  (24) 
1

>  <AltIds>  (24) 


>  <pKI>  (24) 
6.52

>  <ChemblID>  (24) 
CHEMBL241070

>  <standardized_canonical_smiles>  (24) 
O=C(O)COc1c(-c2nn[nH]n2)sc(-c2cccc(NC3CCN(S(=O)(=O)Cc4ccccc4)CC3)c2)c1Br

$$$$
2NT7_902_A_800
     RDKit          3D

 39 43  0  0  0  0  0  0  0  0999 V2000
   44.8920   13.7100    0.4730 S   0  0  0  0  0  0  0  0  0  0  0  0
   44.9350   15.0810    1.4460 C   0  0  0  0  0  0  0  0  0  0  0  0
   45.7820   14.8400    2.5380 C   0  0  0  0  0  0  0  0  0  0  0  0
   46.3610   13.5470    2.5380 C   0  0  0  0  0  0  0  0  0  0  0  0
   45.9340   12.7760    1.4070 C   0  0  0  0  0  0  0  0  0  0  0  0
   44.1870   16.3180    1.1490 C   0  0  0  0  0  0  0  0  0  0  0  0
   43.7040   16.5980   -0.0870 N   0  0  0  0  0  0  0  0  0  0  0  0
   43.8520   17.3430    1.9750 N   0  0  0  0  0  0  0  0  0  0  0  0
   46.2610   11.3970    0.9810 C   0  0  0  0  0  0  0  0  0  0  0  0
   47.5870   10.8860    1.0620 C   0  0  0  0  0  0  0  0  0  0  0  0
   47.8480    9.5490    0.6440 C   0  0  0  0  0  0  0  0  0  0  0  0
   46.7770    8.7110    0.1580 C   0  0  0  0  0  0  0  0  0  0  0  0
   45.4430    9.2220    0.0780 C   0  0  0  0  0  0  0  0  0  0  0  0
   45.1910   10.5650    0.5000 C   0  0  0  0  0  0  0  0  0  0  0  0
   47.5540   12.9350    3.8880 Br  0  0  0  0  0  0  0  0  0  0  0  0
   46.0390   15.8070    3.5740 O   0  0  0  0  0  0  0  0  0  0  0  0
   47.3170   16.4660    3.4630 C   0  0  0  0  0  0  0  0  0  0  0  0
   47.7040   17.2290    4.7460 C   0  0  0  0  0  0  0  0  0  0  0  0
   46.9340   17.2730    5.7050 O   0  0  0  0  0  0  0  0  0  0  0  0
   48.7950   17.7890    4.7820 O   0  0  0  0  0  0  0  0  0  0  0  0
   49.1470    9.1080    0.7490 N   0  0  0  0  0  0  0  0  0  0  0  0
   49.5760    7.9110    1.4930 C   0  0  0  0  0  0  0  0  0  0  0  0
   48.9940    7.8160    2.9230 C   0  0  0  0  0  0  0  0  0  0  0  0
   49.3360    6.4290    3.4980 C   0  0  0  0  0  0  0  0  0  0  0  0
   50.7820    6.0670    3.3900 N   0  0  0  0  0  0  0  0  0  0  0  0
   51.5820    6.5500    2.2190 C   0  0  0  0  0  0  0  0  0  0  0  0
   51.1060    7.8900    1.6070 C   0  0  0  0  0  0  0  0  0  0  0  0
   51.4680    5.1050    4.5450 S   0  0  0  0  0  0  0  0  0  0  0  0
   50.6800    5.2250    5.7320 O   0  0  0  0  0  0  0  0  0  0  0  0
   52.8620    5.4920    4.6340 O   0  0  0  0  0  0  0  0  0  0  0  0
   51.4210    3.3930    4.0570 C   0  0  0  0  0  0  0  0  0  0  0  0
   51.9420    2.4850    5.1490 C   0  0  0  0  0  0  0  0  0  0  0  0
   51.0210    1.9750    6.1270 C   0  0  0  0  0  0  0  0  0  0  0  0
   51.4940    1.1140    7.1660 C   0  0  0  0  0  0  0  0  0  0  0  0
   52.8890    0.7720    7.2140 C   0  0  0  0  0  0  0  0  0  0  0  0
   53.8190    1.2770    6.2420 C   0  0  0  0  0  0  0  0  0  0  0  0
   53.3410    2.1400    5.2010 C   0  0  0  0  0  0  0  0  0  0  0  0
   43.1630   18.2600    1.2490 N   0  0  0  0  0  0  0  0  0  0  0  0
   43.0700   17.7980   -0.0310 N   0  0  0  0  0  0  0  0  0  0  0  0
  2  1  1  0
  5  1  1  0
  3  2  2  0
  6  2  1  0
  4  3  1  0
 16  3  1  0
  5  4  2  0
 15  4  1  0
  9  5  1  0
  7  6  2  0
  8  6  1  0
 39  7  1  0
 38  8  2  0
 10  9  2  0
 14  9  1  0
 11 10  1  0
 12 11  2  0
 21 11  1  0
 13 12  1  0
 14 13  2  0
 17 16  1  0
 18 17  1  0
 19 18  1  0
 20 18  2  0
 22 21  1  0
 23 22  1  0
 27 22  1  0
 24 23  1  0
 25 24  1  0
 26 25  1  0
 28 25  1  0
 27 26  1  0
 29 28  2  0
 30 28  2  0
 31 28  1  0
 32 31  1  0
 33 32  2  0
 37 32  1  0
 34 33  1  0
 35 34  2  0
 36 35  1  0
 37 36  2  0
 39 38  1  0
A    1
S1
A    2
C2
A    3
C3
A    4
C4
A    5
C5
A    6
C6
A    7
N7
A    8
N8
A    9
C9
A   10
C10
A   11
C11
A   12
C12
A   13
C13
A   14
C14
A   15
BR19
A   16
O20
A   17
C21
A   18
C22
A   19
O25
A   20
O26
A   21
N28
A   22
C29
A   23
C30
A   24
C31
A   25
N32
A   26
C33
A   27
C34
A   28
S44
A   29
O45
A   30
O46
A   31
C47
A   32
C48
A   33
C51
A   34
C52
A   35
C53
A   36
C54
A   37
C55
A   38
N61
A   39
N62
M  END
>  <Id>  (25) 
2NT7_902_A_800

>  <ChainId>  (25) 
A

>  <AsymId>  (25) 
B

>  <SeqNum>  (25) 
800

>  <Name>  (25) 
{[5-(3-{[1-(BENZYLSULFONYL)PIPERIDIN-4-YL]AMINO}PHENYL)-4-BROMO-2-(2H-TETRAZOL-5-YL)-3-THIENYL]OXY}ACETIC ACID

>  <SystematicName>  (25) 
2-[4-bromo-5-[3-[[1-(phenylmethylsulfonyl)piperidin-4-yl]amino]phenyl]-2-(2H-1,2,3,4-tetrazol-5-yl)thiophen-3-yl]oxyethanoic acid

>  <Synonyms>  (25) 


>  <Type>  (25) 
NON-POLYMER

>  <Formula>  (25) 
C25 H25 Br N6 O5 S2

>  <ObservedFormula>  (25) 
Br S2 C25 N6 O5

>  <MolecularWeight>  (25) 
633.537

>  <ModifiedDate>  (25) 
2011-06-04

>  <Parent>  (25) 


>  <OneLetterCode>  (25) 


>  <SubcomponentList>  (25) 


>  <AmbiguousFlag>  (25) 


>  <InsertionCode>  (25) 


>  <InstanceId>  (25) 
2NT7_902_A_800

>  <ChemCompId>  (25) 
902

>  <PdbId>  (25) 
2NT7

>  <ResidueNumber>  (25) 
800

>  <InChI>  (25) 
InChI=1S/C25H25BrN6O5S2/c26-21-22(37-14-20(33)34)24(25-28-30-31-29-25)38-23(21)17-7-4-8-19(13-17)27-18-9-11-32(12-10-18)39(35,36)15-16-5-2-1-3-6-16/h1-8,13,18,27H,9-12,14-15H2,(H,33,34)(H,28,29,30,31)

>  <InChIKey>  (25) 
XUNHAAXAXQCMHA-UHFFFAOYSA-N

>  <SMILES>  (25) 
c1ccc(cc1)CS(=O)(=O)N2CCC(CC2)Nc3cccc(c3)c4c(c(c(s4)c5n[nH]nn5)OCC(=O)O)Br

>  <MissingHeavyAtoms>  (25) 
0

>  <Model>  (25) 
1

>  <AltIds>  (25) 


>  <pKI>  (25) 
6.52

>  <ChemblID>  (25) 
CHEMBL241070

>  <standardized_canonical_smiles>  (25) 
O=C(O)COc1c(-c2nn[nH]n2)sc(-c2cccc(NC3CCN(S(=O)(=O)Cc4ccccc4)CC3)c2)c1Br

$$$$
2NTA_521_A_301
     RDKit          3D

 20 22  0  0  0  0  0  0  0  0999 V2000
   29.3880  -32.5530    1.0090 C   0  0  0  0  0  0  0  0  0  0  0  0
   30.6440  -33.1950    0.8630 C   0  0  0  0  0  0  0  0  0  0  0  0
   31.6890  -32.5660    0.1400 C   0  0  0  0  0  0  0  0  0  0  0  0
   31.5080  -31.2850   -0.4540 C   0  0  0  0  0  0  0  0  0  0  0  0
   30.2240  -30.6420   -0.2950 C   0  0  0  0  0  0  0  0  0  0  0  0
   29.1760  -31.2740    0.4320 C   0  0  0  0  0  0  0  0  0  0  0  0
   32.6380  -30.6330   -1.1980 C   0  0  0  0  0  0  0  0  0  0  0  0
   34.4570  -28.5230   -3.7480 N   0  0  0  0  0  0  0  0  0  0  0  0
   35.2790  -27.4970   -5.8570 N   0  0  0  0  0  0  0  0  0  0  0  0
   34.0330  -29.3960   -2.6930 C   0  0  0  0  0  0  0  0  0  0  0  0
   32.6840  -29.8010   -2.3520 C   0  0  0  0  0  0  0  0  0  0  0  0
   34.9290  -29.9600   -1.7990 C   0  0  0  0  0  0  0  0  0  0  0  0
   34.2240  -30.9190   -0.5970 S   0  0  0  0  0  0  0  0  0  0  0  0
   34.4820  -27.0380   -3.6310 C   0  0  0  0  0  0  0  0  0  0  0  0
   34.9910  -26.4730   -4.9340 C   0  0  0  0  0  0  0  0  0  0  0  0
   35.1320  -25.2890   -5.1600 O   0  0  0  0  0  0  0  0  0  0  0  0
   34.9860  -29.0670   -5.2940 S   0  0  0  0  0  0  0  0  0  0  0  0
   36.2560  -29.7620   -5.1660 O   0  0  0  0  0  0  0  0  0  0  0  0
   33.8730  -29.6300   -6.0370 O   0  0  0  0  0  0  0  0  0  0  0  0
   31.3030  -29.3360   -3.2630 Cl  0  0  0  0  0  0  0  0  0  0  0  0
  2  1  2  0
  6  1  1  0
  3  2  1  0
  4  3  2  0
  5  4  1  0
  7  4  1  0
  6  5  2  0
 11  7  2  0
 13  7  1  0
 10  8  1  0
 14  8  1  0
 17  8  1  0
 15  9  1  0
 17  9  1  0
 11 10  1  0
 12 10  2  0
 20 11  1  0
 13 12  1  0
 15 14  1  0
 16 15  2  0
 18 17  2  0
 19 17  2  0
A    1
C1
A    2
C2
A    3
C3
A    4
C4
A    5
C5
A    6
C6
A    7
C7
A    8
N1
A    9
N2
A   10
C9
A   11
C8
A   12
C10
A   13
S1
A   14
C11
A   15
C12
A   16
O1
A   17
S2
A   18
O2
A   19
O3
A   20
CL1
M  END
>  <Id>  (26) 
2NTA_521_A_301

>  <ChainId>  (26) 
A

>  <AsymId>  (26) 
B

>  <SeqNum>  (26) 
301

>  <Name>  (26) 
5-(4-CHLORO-5-PHENYL-3-THIENYL)-1,2,5-THIADIAZOLIDIN-3-ONE 1,1-DIOXIDE

>  <SystematicName>  (26) 
5-(4-chloro-5-phenyl-thiophen-3-yl)-1,1-dioxo-1,2,5-thiadiazolidin-3-one

>  <Synonyms>  (26) 


>  <Type>  (26) 
NON-POLYMER

>  <Formula>  (26) 
C12 H9 Cl N2 O3 S2

>  <ObservedFormula>  (26) 
C12 S2 Cl N2 O3

>  <MolecularWeight>  (26) 
328.794

>  <ModifiedDate>  (26) 
2011-06-04

>  <Parent>  (26) 


>  <OneLetterCode>  (26) 


>  <SubcomponentList>  (26) 


>  <AmbiguousFlag>  (26) 


>  <InsertionCode>  (26) 


>  <InstanceId>  (26) 
2NTA_521_A_301

>  <ChemCompId>  (26) 
521

>  <PdbId>  (26) 
2NTA

>  <ResidueNumber>  (26) 
301

>  <InChI>  (26) 
InChI=1S/C12H9ClN2O3S2/c13-11-9(15-6-10(16)14-20(15,17)18)7-19-12(11)8-4-2-1-3-5-8/h1-5,7H,6H2,(H,14,16)

>  <InChIKey>  (26) 
LCPRWBWCEGWNKF-UHFFFAOYSA-N

>  <SMILES>  (26) 
c1ccc(cc1)c2c(c(cs2)N3CC(=O)NS3(=O)=O)Cl

>  <MissingHeavyAtoms>  (26) 
0

>  <Model>  (26) 
1

>  <AltIds>  (26) 


>  <pKI>  (26) 
4.8

>  <ChemblID>  (26) 
CHEMBL394484

>  <standardized_canonical_smiles>  (26) 
O=C1CN(c2csc(-c3ccccc3)c2Cl)S(=O)(=O)N1

$$$$
1ONY_588_A_322
     RDKit          3D

 41 42  0  0  0  0  0  0  0  0999 V2000
   35.6710   29.8200   23.1440 O   0  0  0  0  0  0  0  0  0  0  0  0
   34.7590   29.1810   23.5790 C   0  0  0  0  0  0  0  0  0  0  0  0
   33.9560   29.6860   24.5490 O   0  0  0  0  0  0  0  0  0  0  0  0
   34.4170   27.7530   23.0400 C   0  0  0  0  0  0  0  0  0  0  0  0
   34.5910   26.8000   23.8100 O   0  0  0  0  0  0  0  0  0  0  0  0
   33.9380   27.5670   21.7210 N   0  0  0  0  0  0  0  0  0  0  0  0
   33.4330   28.6840   21.0240 C   0  0  0  0  0  0  0  0  0  0  0  0
   32.0940   29.0880   21.3370 C   0  0  0  0  0  0  0  0  0  0  0  0
   31.4900   30.1770   20.7050 C   0  0  0  0  0  0  0  0  0  0  0  0
   32.1920   30.9170   19.7280 C   0  0  0  0  0  0  0  0  0  0  0  0
   33.5260   30.5440   19.4040 C   0  0  0  0  0  0  0  0  0  0  0  0
   34.1720   29.4380   20.0350 C   0  0  0  0  0  0  0  0  0  0  0  0
   35.5990   29.0990   19.6500 C   0  0  0  0  0  0  0  0  0  0  0  0
   35.7820   28.4400   18.2810 C   0  0  0  0  0  0  0  0  0  0  0  0
   37.2900   28.3820   17.9450 C   0  0  0  0  0  0  0  0  0  0  0  0
   37.7490   28.9720   16.9830 O   0  0  0  0  0  0  0  0  0  0  0  0
   38.0360   27.6410   18.7820 N   0  0  0  0  0  0  0  0  0  0  0  0
   31.5120   32.0760   19.0380 C   0  0  0  0  0  0  0  0  0  0  0  0
   30.9930   31.7420   17.5980 C   0  0  0  0  0  0  0  0  0  0  0  0
   30.3710   32.9350   17.0340 N   0  0  0  0  0  0  0  0  0  0  0  0
   30.4780   33.2110   15.3140 S   0  0  0  0  0  0  0  0  0  0  0  0
   29.3820   32.4670   14.7820 O   0  0  0  0  0  0  0  0  0  0  0  0
   31.8110   32.8000   14.9720 O   0  0  0  0  0  0  0  0  0  0  0  0
   30.2970   34.9470   15.0040 C   0  0  0  0  0  0  0  0  0  0  0  0
   30.0070   30.5400   17.6000 C   0  0  0  0  0  0  0  0  0  0  0  0
   30.4060   29.3810   17.5270 O   0  0  0  0  0  0  0  0  0  0  0  0
   28.7050   30.9010   17.7040 N   0  0  0  0  0  0  0  0  0  0  0  0
   27.6170   29.9150   17.7340 C   0  0  0  0  0  0  0  0  0  0  0  0
   26.4960   30.4050   18.6600 C   0  0  0  0  0  0  0  0  0  0  0  0
   26.9050   30.3720   20.1420 C   0  0  0  0  0  0  0  0  0  0  0  0
   26.2100   31.4580   20.9630 C   0  0  0  0  0  0  0  0  0  0  0  0
   26.0020   31.0420   22.4230 C   0  0  0  0  0  0  0  0  0  0  0  0
   33.9160   26.2600   21.0860 C   0  0  0  0  0  0  0  0  0  0  0  0
   32.6720   25.8320   20.4640 C   0  0  0  0  0  0  0  0  0  0  0  0
   32.5230   24.5920   19.8160 C   0  0  0  0  0  0  0  0  0  0  0  0
   33.6050   23.7000   19.7520 C   0  0  0  0  0  0  0  0  0  0  0  0
   34.8370   24.0550   20.3350 C   0  0  0  0  0  0  0  0  0  0  0  0
   35.0350   25.3020   21.0030 C   0  0  0  0  0  0  0  0  0  0  0  0
   36.4070   25.5070   21.5620 C   0  0  0  0  0  0  0  0  0  0  0  0
   36.9110   24.6060   22.1860 O   0  0  0  0  0  0  0  0  0  0  0  0
   37.0490   26.5370   21.4530 O   0  0  0  0  0  0  0  0  0  0  0  0
  2  1  1  0
  3  2  2  0
  4  2  1  0
  5  4  2  0
  6  4  1  0
  7  6  1  0
 33  6  1  0
  8  7  2  0
 12  7  1  0
  9  8  1  0
 10  9  2  0
 11 10  1  0
 18 10  1  0
 12 11  2  0
 13 12  1  0
 14 13  2  0
 15 14  1  0
 16 15  2  0
 17 15  1  0
 19 18  1  0
 20 19  1  0
 25 19  1  0
 21 20  1  0
 22 21  2  0
 23 21  2  0
 24 21  1  0
 26 25  2  0
 27 25  1  0
 28 27  1  0
 29 28  1  0
 30 29  1  0
 31 30  1  0
 32 31  1  0
 34 33  2  0
 38 33  1  0
 35 34  1  0
 36 35  2  0
 37 36  1  0
 38 37  2  0
 39 38  1  0
 40 39  2  0
 41 39  1  0
A    1
O6
A    2
C24
A    3
O7
A    4
C8
A    5
O5
A    6
N4
A    7
C2
A    8
C3
A    9
C4
A   10
C5
A   11
C6
A   12
C1
A   13
C17
A   14
C18
A   15
C19
A   16
O1
A   17
N3
A   18
C7
A   19
C9
A   20
N1
A   21
S1
A   22
O4
A   23
O2
A   24
C20
A   25
C11
A   26
O8
A   27
N2
A   28
C12
A   29
C13
A   30
C15
A   31
C14
A   32
C16
A   33
C26
A   34
C27
A   35
C28
A   36
C29
A   37
C30
A   38
C25
A   39
C31
A   40
O9
A   41
O10
M  END
>  <Id>  (27) 
1ONY_588_A_322

>  <ChainId>  (27) 
A

>  <AsymId>  (27) 
B

>  <SeqNum>  (27) 
322

>  <Name>  (27) 
2-{[2-(2-CARBAMOYL-VINYL)-4-(2-METHANESULFONYLAMINO-2-PENTYLCARBAMOYL-ETHYL)-PHENYL]-OXALYL-AMINO}-BENZOIC ACID

>  <SystematicName>  (27) 
2-[[2-[(E)-3-amino-3-oxo-prop-1-enyl]-4-[(2S)-2-(methylsulfonylamino)-3-oxo-3-(pentylamino)propyl]phenyl]-(carboxycarbonyl)amino]benzoic acid

>  <Synonyms>  (27) 
COMPOUND 17

>  <Type>  (27) 
NON-POLYMER

>  <Formula>  (27) 
C27 H32 N4 O9 S

>  <ObservedFormula>  (27) 
C27 S N4 O9

>  <MolecularWeight>  (27) 
588.629

>  <ModifiedDate>  (27) 
2011-06-04

>  <Parent>  (27) 


>  <OneLetterCode>  (27) 


>  <SubcomponentList>  (27) 


>  <AmbiguousFlag>  (27) 
N

>  <InsertionCode>  (27) 


>  <InstanceId>  (27) 
1ONY_588_A_322

>  <ChemCompId>  (27) 
588

>  <PdbId>  (27) 
1ONY

>  <ResidueNumber>  (27) 
322

>  <InChI>  (27) 
InChI=1S/C27H32N4O9S/c1-3-4-7-14-29-24(33)20(30-41(2,39)40)16-17-10-12-21(18(15-17)11-13-23(28)32)31(25(34)27(37)38)22-9-6-5-8-19(22)26(35)36/h5-6,8-13,15,20,30H,3-4,7,14,16H2,1-2H3,(H2,28,32)(H,29,33)(H,35,36)(H,37,38)/b13-11+/t20-/m0/s1

>  <InChIKey>  (27) 
FSRCMOQVSVRBJH-RPAADVPWSA-N

>  <SMILES>  (27) 
CCCCCNC(=O)[C@H](Cc1ccc(c(c1)\C=C\C(=O)N)N(c2ccccc2C(=O)O)C(=O)C(=O)O)NS(=O)(=O)C

>  <MissingHeavyAtoms>  (27) 
0

>  <Model>  (27) 
1

>  <AltIds>  (27) 


>  <pKI>  (27) 
6.71

>  <ChemblID>  (27) 
CHEMBL549752

>  <standardized_canonical_smiles>  (27) 
CCCCCNC(=O)[C@H](Cc1ccc(N(C(=O)C(=O)O)c2ccccc2C(=O)O)c(/C=C/C(N)=O)c1)NS(C)(=O)=O

$$$$
1NNY_515_A_322
     RDKit          3D

 53 57  0  0  0  0  0  0  0  0999 V2000
   35.8290   28.7060   20.6170 C   0  0  0  0  0  0  0  0  0  0  0  0
   35.0780   28.1540   21.7250 C   0  0  0  0  0  0  0  0  0  0  0  0
   33.7560   28.6920   21.9980 C   0  0  0  0  0  0  0  0  0  0  0  0
   33.1890   29.7160   21.2280 C   0  0  0  0  0  0  0  0  0  0  0  0
   33.8940   30.2790   20.1290 C   0  0  0  0  0  0  0  0  0  0  0  0
   35.2420   29.7730   19.8100 C   0  0  0  0  0  0  0  0  0  0  0  0
   35.5230   27.1150   22.5750 N   0  0  0  0  0  0  0  0  0  0  0  0
   32.6040   30.8500   17.9680 C   0  0  0  0  0  0  0  0  0  0  0  0
   31.9840   31.9720   17.2520 N   0  0  0  0  0  0  0  0  0  0  0  0
   32.4630   32.3610   16.0380 C   0  0  0  0  0  0  0  0  0  0  0  0
   31.6270   29.6600   18.1900 C   0  0  0  0  0  0  0  0  0  0  0  0
   30.3010   29.9700   18.3220 N   0  0  0  0  0  0  0  0  0  0  0  0
   29.2820   28.9250   18.5490 C   0  0  0  0  0  0  0  0  0  0  0  0
   28.1650   29.2630   19.5950 C   0  0  0  0  0  0  0  0  0  0  0  0
   26.7080   30.6830   22.6340 C   0  0  0  0  0  0  0  0  0  0  0  0
   28.5960   29.4180   21.0680 C   0  0  0  0  0  0  0  0  0  0  0  0
   26.0100   29.4170   22.6970 O   0  0  0  0  0  0  0  0  0  0  0  0
   33.4110   31.8460   15.4450 O   0  0  0  0  0  0  0  0  0  0  0  0
   31.7040   33.5410   15.4330 C   0  0  0  0  0  0  0  0  0  0  0  0
   35.9230   27.4280   23.9130 C   0  0  0  0  0  0  0  0  0  0  0  0
   32.0770   28.5200   18.2470 O   0  0  0  0  0  0  0  0  0  0  0  0
   33.1950   31.3810   19.3220 C   0  0  0  0  0  0  0  0  0  0  0  0
   36.2070   26.5760   24.7490 O   0  0  0  0  0  0  0  0  0  0  0  0
   36.0340   28.8800   24.4110 C   0  0  0  0  0  0  0  0  0  0  0  0
   36.9470   29.6070   24.1070 O   0  0  0  0  0  0  0  0  0  0  0  0
   36.4960   24.7230   22.1330 C   0  0  0  0  0  0  0  0  0  0  0  0
   35.4460   25.7480   22.0880 C   0  0  0  0  0  0  0  0  0  0  0  0
   34.2040   25.3370   21.4860 C   0  0  0  0  0  0  0  0  0  0  0  0
   33.9860   24.0540   20.9710 C   0  0  0  0  0  0  0  0  0  0  0  0
   35.0010   23.0970   21.0220 C   0  0  0  0  0  0  0  0  0  0  0  0
   36.2310   23.4300   21.5940 C   0  0  0  0  0  0  0  0  0  0  0  0
   38.3950   23.9170   23.2220 O   0  0  0  0  0  0  0  0  0  0  0  0
   38.5090   26.0420   22.6250 O   0  0  0  0  0  0  0  0  0  0  0  0
   37.8690   24.8590   22.6960 C   0  0  0  0  0  0  0  0  0  0  0  0
   24.6760   29.3590   23.2360 C   0  0  0  0  0  0  0  0  0  0  0  0
   23.9370   30.5470   23.5910 C   0  0  0  0  0  0  0  0  0  0  0  0
   22.6210   30.4790   24.1220 C   0  0  0  0  0  0  0  0  0  0  0  0
   21.9760   29.1950   24.3210 C   0  0  0  0  0  0  0  0  0  0  0  0
   22.6860   28.0020   23.9780 C   0  0  0  0  0  0  0  0  0  0  0  0
   24.0170   28.0800   23.4460 C   0  0  0  0  0  0  0  0  0  0  0  0
   24.6810   26.8240   23.1260 C   0  0  0  0  0  0  0  0  0  0  0  0
   25.0080   26.0510   24.1660 O   0  0  0  0  0  0  0  0  0  0  0  0
   24.9170   26.5020   22.0000 O   0  0  0  0  0  0  0  0  0  0  0  0
   37.1450   28.2110   20.2980 C   0  0  0  0  0  0  0  0  0  0  0  0
   37.8780   28.7590   19.2030 C   0  0  0  0  0  0  0  0  0  0  0  0
   37.3130   29.7990   18.4120 C   0  0  0  0  0  0  0  0  0  0  0  0
   36.0110   30.3010   18.7100 C   0  0  0  0  0  0  0  0  0  0  0  0
   28.0870   30.6390   21.9180 C   0  0  0  0  0  0  0  0  0  0  0  0
   35.0250   29.2820   25.2020 O   0  0  0  0  0  0  0  0  0  0  0  0
   21.9420   31.6940   24.4620 C   0  0  0  0  0  0  0  0  0  0  0  0
   20.6210   31.6380   25.0000 C   0  0  0  0  0  0  0  0  0  0  0  0
   19.9740   30.3790   25.1970 C   0  0  0  0  0  0  0  0  0  0  0  0
   20.6380   29.1550   24.8620 C   0  0  0  0  0  0  0  0  0  0  0  0
  2  1  1  0
  6  1  2  0
 44  1  1  0
  3  2  2  0
  7  2  1  0
  4  3  1  0
  5  4  2  0
  6  5  1  0
 22  5  1  0
 47  6  1  0
 20  7  1  0
 27  7  1  0
  9  8  1  0
 11  8  1  0
 22  8  1  0
 10  9  1  0
 18 10  2  0
 19 10  1  0
 12 11  1  0
 21 11  2  0
 13 12  1  0
 14 13  1  0
 16 14  1  0
 17 15  1  0
 48 15  1  0
 48 16  1  0
 35 17  1  0
 23 20  2  0
 24 20  1  0
 25 24  2  0
 49 24  1  0
 27 26  2  0
 31 26  1  0
 34 26  1  0
 28 27  1  0
 29 28  2  0
 30 29  1  0
 31 30  2  0
 34 32  2  0
 34 33  1  0
 36 35  2  0
 40 35  1  0
 37 36  1  0
 38 37  2  0
 50 37  1  0
 39 38  1  0
 53 38  1  0
 40 39  2  0
 41 40  1  0
 42 41  1  0
 43 41  2  0
 45 44  2  0
 46 45  1  0
 47 46  2  0
 51 50  2  0
 52 51  1  0
 53 52  2  0
A    1
C1
A    2
C2
A    3
C3
A    4
C4
A    5
C5
A    6
C6
A    7
N4
A    8
C9
A    9
N1
A   10
C10
A   11
C11
A   12
N2
A   13
C12
A   14
C13
A   15
C14
A   16
C15
A   17
O1
A   18
O4
A   19
C23
A   20
C8
A   21
O8
A   22
C7
A   23
O5
A   24
C24
A   25
O6
A   26
C25
A   27
C26
A   28
C27
A   29
C28
A   30
C29
A   31
C30
A   32
O9
A   33
O10
A   34
C31
A   35
C32
A   36
C33
A   37
C34
A   38
C35
A   39
C36
A   40
C37
A   41
C38
A   42
O11
A   43
O12
A   44
C16
A   45
C17
A   46
C18
A   47
C19
A   48
C20
A   49
O2
A   50
C41
A   51
C42
A   52
C43
A   53
C44
M  END
>  <Id>  (28) 
1NNY_515_A_322

>  <ChainId>  (28) 
A

>  <AsymId>  (28) 
B

>  <SeqNum>  (28) 
322

>  <Name>  (28) 
3-({5-[(N-ACETYL-3-{4-[(CARBOXYCARBONYL)(2-CARBOXYPHENYL)AMINO]-1-NAPHTHYL}-L-ALANYL)AMINO]PENTYL}OXY)-2-NAPHTHOIC ACID

>  <SystematicName>  (28) 
3-[5-[[(2S)-2-acetamido-3-[4-[carboxycarbonyl-(2-carboxyphenyl)amino]naphthalen-1-yl]propanoyl]amino]pentoxy]naphthalene-2-carboxylic acid

>  <Synonyms>  (28) 
COMPOUND 23

>  <Type>  (28) 
NON-POLYMER

>  <Formula>  (28) 
C40 H37 N3 O10

>  <ObservedFormula>  (28) 
C40 N3 O10

>  <MolecularWeight>  (28) 
719.736

>  <ModifiedDate>  (28) 
2011-06-04

>  <Parent>  (28) 


>  <OneLetterCode>  (28) 


>  <SubcomponentList>  (28) 


>  <AmbiguousFlag>  (28) 
N

>  <InsertionCode>  (28) 


>  <InstanceId>  (28) 
1NNY_515_A_322

>  <ChemCompId>  (28) 
515

>  <PdbId>  (28) 
1NNY

>  <ResidueNumber>  (28) 
322

>  <InChI>  (28) 
InChI=1S/C40H37N3O10/c1-24(44)42-32(36(45)41-19-9-2-10-20-53-35-23-26-12-4-3-11-25(26)21-31(35)39(49)50)22-27-17-18-34(29-14-6-5-13-28(27)29)43(37(46)40(51)52)33-16-8-7-15-30(33)38(47)48/h3-8,11-18,21,23,32H,2,9-10,19-20,22H2,1H3,(H,41,45)(H,42,44)(H,47,48)(H,49,50)(H,51,52)/t32-/m0/s1

>  <InChIKey>  (28) 
URRKGBLRIVECAH-YTTGMZPUSA-N

>  <SMILES>  (28) 
CC(=O)N[C@@H](Cc1ccc(c2c1cccc2)N(c3ccccc3C(=O)O)C(=O)C(=O)O)C(=O)NCCCCCOc4cc5ccccc5cc4C(=O)O

>  <MissingHeavyAtoms>  (28) 
0

>  <Model>  (28) 
1

>  <AltIds>  (28) 


>  <pKI>  (28) 
7.7

>  <ChemblID>  (28) 
CHEMBL1230341

>  <standardized_canonical_smiles>  (28) 
CC(=O)N[C@@H](Cc1ccc(N(C(=O)C(=O)O)c2ccccc2C(=O)O)c2ccccc12)C(=O)NCCCCCOc1cc2ccccc2cc1C(=O)O

$$$$
1PYN_941_A_322
     RDKit          3D

 43 44  0  0  0  0  0  0  0  0999 V2000
   34.4630   29.7880   19.7570 C   0  0  0  0  0  0  0  0  0  0  0  0
   33.7860   29.1070   20.8760 C   0  0  0  0  0  0  0  0  0  0  0  0
   32.4210   29.4120   21.1260 C   0  0  0  0  0  0  0  0  0  0  0  0
   31.7080   30.3500   20.3190 C   0  0  0  0  0  0  0  0  0  0  0  0
   32.3570   31.0120   19.2290 C   0  0  0  0  0  0  0  0  0  0  0  0
   33.7460   30.7210   18.9570 C   0  0  0  0  0  0  0  0  0  0  0  0
   31.1420   31.3540   16.9830 C   0  0  0  0  0  0  0  0  0  0  0  0
   30.3840   32.3590   16.2500 N   0  0  0  0  0  0  0  0  0  0  0  0
   30.3740   32.6090   14.9360 C   0  0  0  0  0  0  0  0  0  0  0  0
   30.4560   29.9660   17.2050 C   0  0  0  0  0  0  0  0  0  0  0  0
   29.1490   30.0250   17.4950 N   0  0  0  0  0  0  0  0  0  0  0  0
   28.2950   28.8480   17.7780 C   0  0  0  0  0  0  0  0  0  0  0  0
   27.1690   29.3100   18.7450 C   0  0  0  0  0  0  0  0  0  0  0  0
   26.6180   30.7920   20.7650 C   0  0  0  0  0  0  0  0  0  0  0  0
   27.6880   30.3150   19.8110 C   0  0  0  0  0  0  0  0  0  0  0  0
   26.2160   29.6980   21.5980 O   0  0  0  0  0  0  0  0  0  0  0  0
   31.0650   31.9610   14.1930 O   0  0  0  0  0  0  0  0  0  0  0  0
   29.5560   33.5920   14.5160 O   0  0  0  0  0  0  0  0  0  0  0  0
   35.6430   27.6650   21.7500 C   0  0  0  0  0  0  0  0  0  0  0  0
   31.1300   28.9180   17.1360 O   0  0  0  0  0  0  0  0  0  0  0  0
   31.5700   31.9910   18.3610 C   0  0  0  0  0  0  0  0  0  0  0  0
   36.6830   28.7280   22.1950 C   0  0  0  0  0  0  0  0  0  0  0  0
   35.6440   26.4290   22.6740 C   0  0  0  0  0  0  0  0  0  0  0  0
   34.9400   26.2740   23.6170 O   0  0  0  0  0  0  0  0  0  0  0  0
   36.5590   25.4910   22.3070 O   0  0  0  0  0  0  0  0  0  0  0  0
   24.9130   29.6800   22.1840 C   0  0  0  0  0  0  0  0  0  0  0  0
   24.1570   30.9050   22.4990 C   0  0  0  0  0  0  0  0  0  0  0  0
   22.8560   30.8330   23.0900 C   0  0  0  0  0  0  0  0  0  0  0  0
   22.2770   29.5560   23.3800 C   0  0  0  0  0  0  0  0  0  0  0  0
   22.9850   28.3490   23.0850 C   0  0  0  0  0  0  0  0  0  0  0  0
   24.3060   28.3890   22.4870 C   0  0  0  0  0  0  0  0  0  0  0  0
   25.0030   27.0990   22.2030 C   0  0  0  0  0  0  0  0  0  0  0  0
   25.2850   26.3340   23.1060 O   0  0  0  0  0  0  0  0  0  0  0  0
   25.2800   26.8540   20.9010 O   0  0  0  0  0  0  0  0  0  0  0  0
   25.9500   25.6260   20.4810 C   0  0  0  0  0  0  0  0  0  0  0  0
   22.3480   27.1750   23.4010 O   0  0  0  0  0  0  0  0  0  0  0  0
   36.4360   29.6970   22.8330 O   0  0  0  0  0  0  0  0  0  0  0  0
   37.9350   28.4390   21.7610 O   0  0  0  0  0  0  0  0  0  0  0  0
   34.2900   28.1630   21.7740 O   0  0  0  0  0  0  0  0  0  0  0  0
   28.3520   33.4330   13.6200 C   0  0  0  0  0  0  0  0  0  0  0  0
   27.6080   32.0830   13.9080 C   0  0  0  0  0  0  0  0  0  0  0  0
   28.8000   33.4540   12.1410 C   0  0  0  0  0  0  0  0  0  0  0  0
   27.3190   34.5760   13.8600 C   0  0  0  0  0  0  0  0  0  0  0  0
  2  1  2  0
  6  1  1  0
  3  2  1  0
 39  2  1  0
  4  3  2  0
  5  4  1  0
  6  5  2  0
 21  5  1  0
  8  7  1  0
 10  7  1  0
 21  7  1  0
  9  8  1  0
 17  9  2  0
 18  9  1  0
 11 10  1  0
 20 10  2  0
 12 11  1  0
 13 12  1  0
 15 13  1  0
 15 14  1  0
 16 14  1  0
 26 16  1  0
 40 18  1  0
 22 19  1  0
 23 19  1  0
 39 19  1  0
 37 22  2  0
 38 22  1  0
 24 23  1  0
 25 23  2  0
 27 26  2  0
 31 26  1  0
 28 27  1  0
 29 28  2  0
 30 29  1  0
 31 30  2  0
 36 30  1  0
 32 31  1  0
 33 32  2  0
 34 32  1  0
 35 34  1  0
 41 40  1  0
 42 40  1  0
 43 40  1  0
A    1
C1
A    2
C2
A    3
C3
A    4
C4
A    5
C5
A    6
C6
A    7
C9
A    8
N1
A    9
C10
A   10
C11
A   11
N2
A   12
C12
A   13
C13
A   14
C14
A   15
C15
A   16
O1
A   17
O4
A   18
O9
A   19
C8
A   20
O8
A   21
C7
A   22
C16
A   23
C24
A   24
O6
A   25
O7
A   26
C32
A   27
C33
A   28
C34
A   29
C35
A   30
C36
A   31
C37
A   32
C38
A   33
O11
A   34
O12
A   35
C39
A   36
O13
A   37
O3
A   38
O5
A   39
O2
A   40
C41
A   41
C42
A   42
C43
A   43
C44
M  END
>  <Id>  (29) 
1PYN_941_A_322

>  <ChainId>  (29) 
A

>  <AsymId>  (29) 
B

>  <SeqNum>  (29) 
322

>  <Name>  (29) 
2-(4-{2-TERT-BUTOXYCARBONYLAMINO-2-[4-(3-HYDROXY-2-METHOXYCARBONYL-PHENOXY)-BUTYLCARBAMOYL]-ETHYL}-PHENOXY)-MALONIC ACID

>  <SystematicName>  (29) 
2-[4-[(2S)-3-[4-(3-hydroxy-2-methoxycarbonyl-phenoxy)butylamino]-2-[(2-methylpropan-2-yl)oxycarbonylamino]-3-oxo-propyl]phenoxy]propanedioic acid

>  <Synonyms>  (29) 
COMPOUND 15

>  <Type>  (29) 
NON-POLYMER

>  <Formula>  (29) 
C29 H36 N2 O12

>  <ObservedFormula>  (29) 
C29 N2 O12

>  <MolecularWeight>  (29) 
604.602

>  <ModifiedDate>  (29) 
2011-06-04

>  <Parent>  (29) 


>  <OneLetterCode>  (29) 


>  <SubcomponentList>  (29) 


>  <AmbiguousFlag>  (29) 
N

>  <InsertionCode>  (29) 


>  <InstanceId>  (29) 
1PYN_941_A_322

>  <ChemCompId>  (29) 
941

>  <PdbId>  (29) 
1PYN

>  <ResidueNumber>  (29) 
322

>  <InChI>  (29) 
InChI=1S/C29H36N2O12/c1-29(2,3)43-28(39)31-19(16-17-10-12-18(13-11-17)42-23(25(34)35)26(36)37)24(33)30-14-5-6-15-41-21-9-7-8-20(32)22(21)27(38)40-4/h7-13,19,23,32H,5-6,14-16H2,1-4H3,(H,30,33)(H,31,39)(H,34,35)(H,36,37)/t19-/m0/s1

>  <InChIKey>  (29) 
GFLFMVSYYFLPFQ-IBGZPJMESA-N

>  <SMILES>  (29) 
CC(C)(C)OC(=O)N[C@@H](Cc1ccc(cc1)OC(C(=O)O)C(=O)O)C(=O)NCCCCOc2cccc(c2C(=O)OC)O

>  <MissingHeavyAtoms>  (29) 
0

>  <Model>  (29) 
1

>  <AltIds>  (29) 


>  <pKI>  (29) 
5.46

>  <ChemblID>  (29) 
CHEMBL557758

>  <standardized_canonical_smiles>  (29) 
COC(=O)c1c(O)cccc1OCCCCNC(=O)[C@H](Cc1ccc(OC(C(=O)O)C(=O)O)cc1)NC(=O)OC(C)(C)C

$$$$
1L8G_DBD_A_322
     RDKit          3D

 31 34  0  0  0  0  0  0  0  0999 V2000
   13.8920   44.1980   17.3490 O   0  0  0  0  0  0  0  0  0  0  0  0
   13.8160   45.0440   18.4860 C   0  0  0  0  0  0  0  0  0  0  0  0
   12.3870   45.3720   18.7680 C   0  0  0  0  0  0  0  0  0  0  0  0
   11.3530   45.0390   17.9810 C   0  0  0  0  0  0  0  0  0  0  0  0
   11.5430   44.2110   16.7580 C   0  0  0  0  0  0  0  0  0  0  0  0
   12.7840   43.3770   17.0760 C   0  0  0  0  0  0  0  0  0  0  0  0
   11.9370   46.0750   20.2580 S   0  0  0  0  0  0  0  0  0  0  0  0
   10.2880   45.9120   19.7710 C   0  0  0  0  0  0  0  0  0  0  0  0
   10.0470   45.4020   18.5570 C   0  0  0  0  0  0  0  0  0  0  0  0
    8.6630   45.2970   17.9530 C   0  0  0  0  0  0  0  0  0  0  0  0
    8.5370   45.2500   16.7650 O   0  0  0  0  0  0  0  0  0  0  0  0
    7.5520   45.2430   18.6900 O   0  0  0  0  0  0  0  0  0  0  0  0
    9.2060   46.3660   20.6110 N   0  0  0  0  0  0  0  0  0  0  0  0
    9.3180   47.0700   21.7370 C   0  0  0  0  0  0  0  0  0  0  0  0
    7.9750   47.4890   22.3640 C   0  0  0  0  0  0  0  0  0  0  0  0
    7.7770   48.5280   22.9140 O   0  0  0  0  0  0  0  0  0  0  0  0
    7.0080   46.5590   22.4130 O   0  0  0  0  0  0  0  0  0  0  0  0
   10.3750   47.3510   22.3230 O   0  0  0  0  0  0  0  0  0  0  0  0
   14.6380   46.2120   18.0600 C   0  0  0  0  0  0  0  0  0  0  0  0
   15.8770   45.6790   17.6670 O   0  0  0  0  0  0  0  0  0  0  0  0
   16.7130   45.2310   18.6980 C   0  0  0  0  0  0  0  0  0  0  0  0
   17.9490   44.5430   18.4230 C   0  0  0  0  0  0  0  0  0  0  0  0
   18.6350   44.3150   19.6090 C   0  0  0  0  0  0  0  0  0  0  0  0
   17.7800   44.7840   21.0230 S   0  0  0  0  0  0  0  0  0  0  0  0
   16.6010   45.2910   20.0500 N   0  0  0  0  0  0  0  0  0  0  0  0
   18.4620   44.2680   17.1770 C   0  0  0  0  0  0  0  0  0  0  0  0
   19.6700   43.5760   17.0860 C   0  0  0  0  0  0  0  0  0  0  0  0
   20.3960   43.3130   18.2530 C   0  0  0  0  0  0  0  0  0  0  0  0
   19.8710   43.6200   19.5010 C   0  0  0  0  0  0  0  0  0  0  0  0
   18.4200   45.8790   21.6250 O   0  0  0  0  0  0  0  0  0  0  0  0
   17.3760   43.6030   21.7820 O   0  0  0  0  0  0  0  0  0  0  0  0
  2  1  1  0
  6  1  1  0
  3  2  1  0
 19  2  1  0
  4  3  2  0
  7  3  1  0
  5  4  1  0
  9  4  1  0
  6  5  1  0
  8  7  1  0
  9  8  2  0
 13  8  1  0
 10  9  1  0
 11 10  2  0
 12 10  1  0
 14 13  1  0
 15 14  1  0
 18 14  2  0
 16 15  2  0
 17 15  1  0
 20 19  1  0
 21 20  1  0
 22 21  1  0
 25 21  2  0
 23 22  2  0
 26 22  1  0
 24 23  1  0
 29 23  1  0
 25 24  1  0
 30 24  2  0
 31 24  2  0
 27 26  2  0
 28 27  1  0
 29 28  2  0
A    1
O1
A    2
C2
A    3
C3
A    4
C4
A    5
C5
A    6
C6
A    7
S7
A    8
C8
A    9
C9
A   10
C10
A   11
O11
A   12
O12
A   13
N13
A   14
C14
A   15
C15
A   16
O16
A   17
O17
A   18
O18
A   19
C19
A   20
O20
A   21
C21
A   22
C22
A   23
C23
A   24
S24
A   25
N25
A   26
C26
A   27
C27
A   28
C28
A   29
C29
A   30
O30
A   31
O31
M  END
>  <Id>  (30) 
1L8G_DBD_A_322

>  <ChainId>  (30) 
A

>  <AsymId>  (30) 
B

>  <SeqNum>  (30) 
322

>  <Name>  (30) 
7-(1,1-DIOXO-1H-BENZO[D]ISOTHIAZOL-3-YLOXYMETHYL)-2-(OXALYL-AMINO)-4,7-DIHYDRO-5H-THIENO[2,3-C]PYRAN-3-CARBOXYLIC ACID

>  <SystematicName>  (30) 
(7S)-2-(carboxycarbonylamino)-7-[(1,1-dioxo-1,2-benzothiazol-3-yl)oxymethyl]-5,7-dihydro-4H-thieno[5,4-c]pyran-3-carboxylic acid

>  <Synonyms>  (30) 


>  <Type>  (30) 
NON-POLYMER

>  <Formula>  (30) 
C18 H14 N2 O9 S2

>  <ObservedFormula>  (30) 
C18 S2 N2 O9

>  <MolecularWeight>  (30) 
466.442

>  <ModifiedDate>  (30) 
2011-06-04

>  <Parent>  (30) 


>  <OneLetterCode>  (30) 


>  <SubcomponentList>  (30) 


>  <AmbiguousFlag>  (30) 
N

>  <InsertionCode>  (30) 


>  <InstanceId>  (30) 
1L8G_DBD_A_322

>  <ChemCompId>  (30) 
DBD

>  <PdbId>  (30) 
1L8G

>  <ResidueNumber>  (30) 
322

>  <InChI>  (30) 
InChI=1S/C18H14N2O9S2/c21-14(18(24)25)19-16-12(17(22)23)9-5-6-28-10(13(9)30-16)7-29-15-8-3-1-2-4-11(8)31(26,27)20-15/h1-4,10H,5-7H2,(H,19,21)(H,22,23)(H,24,25)/t10-/m0/s1

>  <InChIKey>  (30) 
MDYIGSPVMWSFEZ-JTQLQIEISA-N

>  <SMILES>  (30) 
c1ccc2c(c1)C(=NS2(=O)=O)OC[C@H]3c4c(c(c(s4)NC(=O)C(=O)O)C(=O)O)CCO3

>  <MissingHeavyAtoms>  (30) 
0

>  <Model>  (30) 
1

>  <AltIds>  (30) 


>  <pKI>  (30) 
5.96

>  <ChemblID>  (30) 
CHEMBL577144

>  <standardized_canonical_smiles>  (30) 
O=C(O)C(=O)Nc1sc2c(c1C(=O)O)CCO[C@H]2COC1=NS(=O)(=O)c2ccccc21

$$$$
1C84_761_A_301
     RDKit          3D

 19 20  0  0  0  0  0  0  0  0999 V2000
   46.1120    9.8450    1.1060 C   0  0  0  0  0  0  0  0  0  0  0  0
   46.2680   10.9550    1.9320 C   0  0  0  0  0  0  0  0  0  0  0  0
   45.5140   12.1070    1.7330 C   0  0  0  0  0  0  0  0  0  0  0  0
   44.5780   12.1350    0.6840 C   0  0  0  0  0  0  0  0  0  0  0  0
   44.4070   11.0050   -0.1500 C   0  0  0  0  0  0  0  0  0  0  0  0
   45.1610    9.8620    0.0800 C   0  0  0  0  0  0  0  0  0  0  0  0
   45.5930   13.2190    2.5900 C   0  0  0  0  0  0  0  0  0  0  0  0
   44.8060   14.3510    2.3370 C   0  0  0  0  0  0  0  0  0  0  0  0
   43.9380   14.3960    1.2320 C   0  0  0  0  0  0  0  0  0  0  0  0
   43.8280   13.2750    0.3920 C   0  0  0  0  0  0  0  0  0  0  0  0
   43.2860   15.6450    0.8670 C   0  0  0  0  0  0  0  0  0  0  0  0
   43.0190   16.4860    1.6590 O   0  0  0  0  0  0  0  0  0  0  0  0
   43.0500   15.7450   -0.4360 O   0  0  0  0  0  0  0  0  0  0  0  0
   44.7710   15.4290    3.1600 N   0  0  0  0  0  0  0  0  0  0  0  0
   45.1960   15.5540    4.4340 C   0  0  0  0  0  0  0  0  0  0  0  0
   45.4380   14.5940    5.1840 O   0  0  0  0  0  0  0  0  0  0  0  0
   45.3600   17.0140    4.9800 C   0  0  0  0  0  0  0  0  0  0  0  0
   44.4140   17.7450    5.1450 O   0  0  0  0  0  0  0  0  0  0  0  0
   46.6300   17.3760    5.3420 O   0  0  0  0  0  0  0  0  0  0  0  0
  2  1  2  0
  6  1  1  0
  3  2  1  0
  4  3  2  0
  7  3  1  0
  5  4  1  0
 10  4  1  0
  6  5  2  0
  8  7  2  0
  9  8  1  0
 14  8  1  0
 10  9  2  0
 11  9  1  0
 12 11  2  0
 13 11  1  0
 15 14  1  0
 16 15  2  0
 17 15  1  0
 18 17  2  0
 19 17  1  0
A    1
C1
A    2
C2
A    3
C3
A    4
C4
A    5
C5
A    6
C6
A    7
C11
A    8
C12
A    9
C13
A   10
C14
A   11
C17
A   12
O18
A   13
O19
A   14
N20
A   15
C21
A   16
O22
A   17
C23
A   18
O24
A   19
O25
M  END
>  <Id>  (31) 
1C84_761_A_301

>  <ChainId>  (31) 
A

>  <AsymId>  (31) 
B

>  <SeqNum>  (31) 
301

>  <Name>  (31) 
3-(OXALYL-AMINO)-NAPHTHALENE-2-CARBOXYLIC ACID

>  <SystematicName>  (31) 
3-(carboxycarbonylamino)naphthalene-2-carboxylic acid

>  <Synonyms>  (31) 


>  <Type>  (31) 
NON-POLYMER

>  <Formula>  (31) 
C13 H9 N O5

>  <ObservedFormula>  (31) 
C13 N O5

>  <MolecularWeight>  (31) 
259.214

>  <ModifiedDate>  (31) 
2011-06-04

>  <Parent>  (31) 


>  <OneLetterCode>  (31) 


>  <SubcomponentList>  (31) 


>  <AmbiguousFlag>  (31) 
N

>  <InsertionCode>  (31) 


>  <InstanceId>  (31) 
1C84_761_A_301

>  <ChemCompId>  (31) 
761

>  <PdbId>  (31) 
1C84

>  <ResidueNumber>  (31) 
301

>  <InChI>  (31) 
InChI=1S/C13H9NO5/c15-11(13(18)19)14-10-6-8-4-2-1-3-7(8)5-9(10)12(16)17/h1-6H,(H,14,15)(H,16,17)(H,18,19)

>  <InChIKey>  (31) 
DQBLKSRRWDWNKQ-UHFFFAOYSA-N

>  <SMILES>  (31) 
c1ccc2cc(c(cc2c1)C(=O)O)NC(=O)C(=O)O

>  <MissingHeavyAtoms>  (31) 
0

>  <Model>  (31) 
1

>  <AltIds>  (31) 


>  <pKI>  (31) 
5.0

>  <ChemblID>  (31) 
CHEMBL383570

>  <standardized_canonical_smiles>  (31) 
O=C(O)C(=O)Nc1cc2ccccc2cc1C(=O)O

$$$$
1NL9_989_A_322
     RDKit          3D

 39 41  0  0  0  0  0  0  0  0999 V2000
   36.6580   29.5000   24.0190 O   0  0  0  0  0  0  0  0  0  0  0  0
   35.6080   28.7400   24.4130 C   0  0  0  0  0  0  0  0  0  0  0  0
   34.7470   29.1720   25.1210 O   0  0  0  0  0  0  0  0  0  0  0  0
   35.5430   27.2770   23.8800 C   0  0  0  0  0  0  0  0  0  0  0  0
   35.8780   26.4060   24.6770 O   0  0  0  0  0  0  0  0  0  0  0  0
   35.1250   26.9770   22.5520 N   0  0  0  0  0  0  0  0  0  0  0  0
   35.0770   25.6090   22.0500 C   0  0  0  0  0  0  0  0  0  0  0  0
   33.8320   25.1790   21.4580 C   0  0  0  0  0  0  0  0  0  0  0  0
   33.6470   23.8880   20.9270 C   0  0  0  0  0  0  0  0  0  0  0  0
   34.6920   22.9580   20.9560 C   0  0  0  0  0  0  0  0  0  0  0  0
   35.9260   23.3190   21.5200 C   0  0  0  0  0  0  0  0  0  0  0  0
   36.1640   24.6160   22.0720 C   0  0  0  0  0  0  0  0  0  0  0  0
   37.5320   24.8230   22.6270 C   0  0  0  0  0  0  0  0  0  0  0  0
   38.1510   25.8280   22.4800 O   0  0  0  0  0  0  0  0  0  0  0  0
   38.0450   23.7900   23.3310 O   0  0  0  0  0  0  0  0  0  0  0  0
   34.6920   28.0320   21.7050 C   0  0  0  0  0  0  0  0  0  0  0  0
   33.3820   28.5810   21.9580 C   0  0  0  0  0  0  0  0  0  0  0  0
   32.8500   29.6210   21.1820 C   0  0  0  0  0  0  0  0  0  0  0  0
   33.5800   30.1890   20.0990 C   0  0  0  0  0  0  0  0  0  0  0  0
   34.9180   29.6720   19.7980 C   0  0  0  0  0  0  0  0  0  0  0  0
   35.4720   28.5890   20.6090 C   0  0  0  0  0  0  0  0  0  0  0  0
   36.7870   28.0840   20.3050 C   0  0  0  0  0  0  0  0  0  0  0  0
   37.5460   28.6280   19.2330 C   0  0  0  0  0  0  0  0  0  0  0  0
   37.0150   29.6830   18.4400 C   0  0  0  0  0  0  0  0  0  0  0  0
   35.7220   30.1980   18.7140 C   0  0  0  0  0  0  0  0  0  0  0  0
   32.9120   31.3080   19.3060 C   0  0  0  0  0  0  0  0  0  0  0  0
   32.3120   30.7900   17.9580 C   0  0  0  0  0  0  0  0  0  0  0  0
   31.7070   31.9260   17.2520 N   0  0  0  0  0  0  0  0  0  0  0  0
   32.2190   32.3740   16.0860 C   0  0  0  0  0  0  0  0  0  0  0  0
   33.1960   31.9010   15.5140 O   0  0  0  0  0  0  0  0  0  0  0  0
   31.4680   33.5610   15.5050 C   0  0  0  0  0  0  0  0  0  0  0  0
   31.2950   29.6300   18.1280 C   0  0  0  0  0  0  0  0  0  0  0  0
   31.7310   28.4810   18.1910 O   0  0  0  0  0  0  0  0  0  0  0  0
   29.9660   29.9050   18.2080 N   0  0  0  0  0  0  0  0  0  0  0  0
   28.8920   28.9250   18.3750 C   0  0  0  0  0  0  0  0  0  0  0  0
   27.6830   29.5000   19.1330 C   0  0  0  0  0  0  0  0  0  0  0  0
   27.9330   29.6020   20.6510 C   0  0  0  0  0  0  0  0  0  0  0  0
   26.7150   30.1700   21.4020 C   0  0  0  0  0  0  0  0  0  0  0  0
   27.0890   30.8300   22.7320 C   0  0  0  0  0  0  0  0  0  0  0  0
  2  1  1  0
  3  2  2  0
  4  2  1  0
  5  4  2  0
  6  4  1  0
  7  6  1  0
 16  6  1  0
  8  7  2  0
 12  7  1  0
  9  8  1  0
 10  9  2  0
 11 10  1  0
 12 11  2  0
 13 12  1  0
 14 13  2  0
 15 13  1  0
 17 16  2  0
 21 16  1  0
 18 17  1  0
 19 18  2  0
 20 19  1  0
 26 19  1  0
 21 20  2  0
 25 20  1  0
 22 21  1  0
 23 22  2  0
 24 23  1  0
 25 24  2  0
 27 26  1  0
 28 27  1  0
 32 27  1  0
 29 28  1  0
 30 29  2  0
 31 29  1  0
 33 32  2  0
 34 32  1  0
 35 34  1  0
 36 35  1  0
 37 36  1  0
 38 37  1  0
 39 38  1  0
A    1
O22
A    2
C21
A    3
O23
A    4
C18
A    5
O20
A    6
N17
A    7
C19
A    8
C28
A    9
C27
A   10
C26
A   11
C25
A   12
C24
A   13
C33
A   14
O34
A   15
O35
A   16
C10
A   17
C9
A   18
C8
A   19
C7
A   20
C3
A   21
C4
A   22
C5
A   23
C6
A   24
C1
A   25
C2
A   26
C36
A   27
C37
A   28
N41
A   29
C61
A   30
O66
A   31
C62
A   32
C40
A   33
O43
A   34
N44
A   35
C45
A   36
C46
A   37
C49
A   38
C52
A   39
C55
M  END
>  <Id>  (32) 
1NL9_989_A_322

>  <ChainId>  (32) 
A

>  <AsymId>  (32) 
B

>  <SeqNum>  (32) 
322

>  <Name>  (32) 
2-{[4-(2-ACETYLAMINO-2-PENTYLCARBAMOYL-ETHYL)-NAPHTHALEN-1-YL]-OXALYL-AMINO}-BENZOIC ACID

>  <SystematicName>  (32) 
2-[[4-[(2S)-2-acetamido-3-oxo-3-(pentylamino)propyl]naphthalen-1-yl]-(carboxycarbonyl)amino]benzoic acid

>  <Synonyms>  (32) 
COMPOUND 12, N-ACETYL-4-[(CARBOXYCARBONYL)(2-CARBOXYPHENYL)AMINO]-N-PENTYL-1-NAPTHYLALANIAMIDE

>  <Type>  (32) 
NON-POLYMER

>  <Formula>  (32) 
C29 H31 N3 O7

>  <ObservedFormula>  (32) 
C29 N3 O7

>  <MolecularWeight>  (32) 
533.572

>  <ModifiedDate>  (32) 
2011-06-04

>  <Parent>  (32) 


>  <OneLetterCode>  (32) 


>  <SubcomponentList>  (32) 


>  <AmbiguousFlag>  (32) 
N

>  <InsertionCode>  (32) 


>  <InstanceId>  (32) 
1NL9_989_A_322

>  <ChemCompId>  (32) 
989

>  <PdbId>  (32) 
1NL9

>  <ResidueNumber>  (32) 
322

>  <InChI>  (32) 
InChI=1S/C29H31N3O7/c1-3-4-9-16-30-26(34)23(31-18(2)33)17-19-14-15-25(21-11-6-5-10-20(19)21)32(27(35)29(38)39)24-13-8-7-12-22(24)28(36)37/h5-8,10-15,23H,3-4,9,16-17H2,1-2H3,(H,30,34)(H,31,33)(H,36,37)(H,38,39)/t23-/m0/s1

>  <InChIKey>  (32) 
UESXELNYBIOROE-QHCPKHFHSA-N

>  <SMILES>  (32) 
CCCCCNC(=O)[C@H](Cc1ccc(c2c1cccc2)N(c3ccccc3C(=O)O)C(=O)C(=O)O)NC(=O)C

>  <MissingHeavyAtoms>  (32) 
0

>  <Model>  (32) 
1

>  <AltIds>  (32) 


>  <pKI>  (32) 
5.96

>  <ChemblID>  (32) 
CHEMBL1230658

>  <standardized_canonical_smiles>  (32) 
CCCCCNC(=O)[C@H](Cc1ccc(N(C(=O)C(=O)O)c2ccccc2C(=O)O)c2ccccc12)NC(C)=O

$$$$
2CNE_DFJ_A_1281
     RDKit          3D

 46 48  0  0  0  0  0  0  0  0999 V2000
   13.3590   35.6090   10.9980 C   0  0  0  0  0  0  0  0  0  0  0  0
   12.1980   35.1520   11.7760 C   0  0  0  0  0  0  0  0  0  0  0  0
   12.2750   34.7180   13.1850 C   0  0  0  0  0  0  0  0  0  0  0  0
   13.5730   34.7350   13.8620 C   0  0  0  0  0  0  0  0  0  0  0  0
   14.6960   35.1980   13.0360 C   0  0  0  0  0  0  0  0  0  0  0  0
   14.6730   35.6400   11.6380 C   0  0  0  0  0  0  0  0  0  0  0  0
   10.9000   35.1230   11.0900 C   0  0  0  0  0  0  0  0  0  0  0  0
    9.7480   36.4580   11.3080 P   0  0  0  0  0  0  0  0  0  0  0  0
   10.0360   33.9560   11.3790 F   0  0  0  0  0  0  0  0  0  0  0  0
   10.9350   35.0640    9.6000 F   0  0  0  0  0  0  0  0  0  0  0  0
    8.5250   35.8930   10.1260 O   0  0  0  0  0  0  0  0  0  0  0  0
   10.6050   37.8510   10.6480 O   0  0  0  0  0  0  0  0  0  0  0  0
    9.3350   36.4470   13.0170 O   0  0  0  0  0  0  0  0  0  0  0  0
   16.0570   35.2170   13.6850 C   0  0  0  0  0  0  0  0  0  0  0  0
   16.7360   33.8660   13.5470 C   0  0  0  0  0  0  0  0  0  0  0  0
   16.2190   32.8530   14.0100 O   0  0  0  0  0  0  0  0  0  0  0  0
   17.8790   33.7800   12.8630 N   0  0  0  0  0  0  0  0  0  0  0  0
   18.4990   32.4410   12.8070 C   0  0  0  0  0  0  0  0  0  0  0  0
   19.8890   32.4330   13.4400 C   0  0  0  0  0  0  0  0  0  0  0  0
   20.7870   33.1670   13.0260 O   0  0  0  0  0  0  0  0  0  0  0  0
   20.1080   31.6020   14.4670 N   0  0  0  0  0  0  0  0  0  0  0  0
   21.4100   31.6260   15.1680 C   0  0  0  0  0  0  0  0  0  0  0  0
   22.4800   30.8140   14.4540 C   0  0  0  0  0  0  0  0  0  0  0  0
   23.5960   31.2800   14.2660 O   0  0  0  0  0  0  0  0  0  0  0  0
   21.2070   31.0720   16.5860 C   0  0  0  0  0  0  0  0  0  0  0  0
   22.4600   31.1370   17.4330 C   0  0  0  0  0  0  0  0  0  0  0  0
   22.1440   29.5910   14.0700 N   0  0  0  0  0  0  0  0  0  0  0  0
   19.3040   30.6560   11.2050 C   0  0  0  0  0  0  0  0  0  0  0  0
   18.5060   29.4660   11.5210 C   0  0  0  0  0  0  0  0  0  0  0  0
   19.1770   28.1610   11.3950 C   0  0  0  0  0  0  0  0  0  0  0  0
   20.5830   28.1180   10.9690 C   0  0  0  0  0  0  0  0  0  0  0  0
   21.3560   29.3300   10.6590 C   0  0  0  0  0  0  0  0  0  0  0  0
   20.7140   30.6470   10.7740 C   0  0  0  0  0  0  0  0  0  0  0  0
   22.9310   29.8780   18.0110 C   0  0  0  0  0  0  0  0  0  0  0  0
   24.1370   29.9620   18.8330 C   0  0  0  0  0  0  0  0  0  0  0  0
   24.7610   31.2830   19.0050 C   0  0  0  0  0  0  0  0  0  0  0  0
   24.2600   32.5300   18.4060 C   0  0  0  0  0  0  0  0  0  0  0  0
   23.0610   32.4610   17.5870 C   0  0  0  0  0  0  0  0  0  0  0  0
   25.9550   31.3200   19.8400 C   0  0  0  0  0  0  0  0  0  0  0  0
   26.8380   32.3440   19.3730 F   0  0  0  0  0  0  0  0  0  0  0  0
   26.6290   30.0390   19.8640 F   0  0  0  0  0  0  0  0  0  0  0  0
   25.7480   31.6130   21.7170 P   0  0  0  0  0  0  0  0  0  0  0  0
   27.3030   31.3940   22.3270 O   0  0  0  0  0  0  0  0  0  0  0  0
   24.6360   30.4250   22.1690 O   0  0  0  0  0  0  0  0  0  0  0  0
   25.2030   33.2350   21.8840 O   0  0  0  0  0  0  0  0  0  0  0  0
   18.6140   32.0010   11.3410 C   0  0  0  0  0  0  0  0  0  0  0  0
  2  1  2  0
  6  1  1  0
  3  2  1  0
  7  2  1  0
  4  3  2  0
  5  4  1  0
  6  5  2  0
 14  5  1  0
  8  7  1  0
  9  7  1  0
 10  7  1  0
 11  8  1  0
 12  8  1  0
 13  8  2  0
 15 14  1  0
 16 15  2  0
 17 15  1  0
 18 17  1  0
 19 18  1  0
 46 18  1  0
 20 19  2  0
 21 19  1  0
 22 21  1  0
 23 22  1  0
 25 22  1  0
 24 23  2  0
 27 23  1  0
 26 25  1  0
 34 26  2  0
 38 26  1  0
 29 28  2  0
 33 28  1  0
 46 28  1  0
 30 29  1  0
 31 30  2  0
 32 31  1  0
 33 32  2  0
 35 34  1  0
 36 35  2  0
 37 36  1  0
 39 36  1  0
 38 37  2  0
 40 39  1  0
 41 39  1  0
 42 39  1  0
 43 42  2  0
 44 42  1  0
 45 42  1  0
A    1
C1
A    2
C2
A    3
C3
A    4
C4
A    5
C5
A    6
C6
A    7
C11
A    8
P12
A    9
F13
A   10
F14
A   11
O15
A   12
O16
A   13
O17
A   14
C20
A   15
C21
A   16
O24
A   17
N25
A   18
C26
A   19
C27
A   20
O30
A   21
N31
A   22
C32
A   23
C33
A   24
O34
A   25
C35
A   26
C37
A   27
N40
A   28
C43
A   29
C46
A   30
C47
A   31
C48
A   32
C49
A   33
C50
A   34
C56
A   35
C57
A   36
C58
A   37
C59
A   38
C60
A   39
C65
A   40
F66
A   41
F67
A   42
P68
A   43
O69
A   44
O70
A   45
O71
A   46
C7
M  END
>  <Id>  (33) 
2CNE_DFJ_A_1281

>  <ChainId>  (33) 
A

>  <AsymId>  (33) 
B

>  <SeqNum>  (33) 
1281

>  <Name>  (33) 
N-({4-[DIFLUORO(PHOSPHONO)METHYL]PHENYL}ACETYL)-L-PHENYLALANYL-4-[DIFLUORO(PHOSPHONO)METHYL]-L-PHENYLALANINAMIDE

>  <SystematicName>  (33) 
[[4-[2-[[(2S)-1-[[(2S)-1-amino-3-[4-(difluoro-phosphono-methyl)phenyl]-1-oxo-propan-2-yl]amino]-1-oxo-3-phenyl-propan-2-yl]amino]-2-oxo-ethyl]phenyl]-difluoro-methyl]phosphonic acid

>  <Synonyms>  (33) 


>  <Type>  (33) 
NON-POLYMER

>  <Formula>  (33) 
C28 H29 F4 N3 O9 P2

>  <ObservedFormula>  (33) 
P2 C28 F4 N3 O9

>  <MolecularWeight>  (33) 
689.486

>  <ModifiedDate>  (33) 
2011-06-04

>  <Parent>  (33) 


>  <OneLetterCode>  (33) 


>  <SubcomponentList>  (33) 


>  <AmbiguousFlag>  (33) 
N

>  <InsertionCode>  (33) 


>  <InstanceId>  (33) 
2CNE_DFJ_A_1281

>  <ChemCompId>  (33) 
DFJ

>  <PdbId>  (33) 
2CNE

>  <ResidueNumber>  (33) 
1281

>  <InChI>  (33) 
InChI=1S/C28H29F4N3O9P2/c29-27(30,45(39,40)41)20-10-6-18(7-11-20)14-22(25(33)37)35-26(38)23(15-17-4-2-1-3-5-17)34-24(36)16-19-8-12-21(13-9-19)28(31,32)46(42,43)44/h1-13,22-23H,14-16H2,(H2,33,37)(H,34,36)(H,35,38)(H2,39,40,41)(H2,42,43,44)/t22-,23-/m0/s1

>  <InChIKey>  (33) 
LGZYIQKUXWAUAL-GOTSBHOMSA-N

>  <SMILES>  (33) 
c1ccc(cc1)C[C@@H](C(=O)N[C@@H](Cc2ccc(cc2)C(F)(F)P(=O)(O)O)C(=O)N)NC(=O)Cc3ccc(cc3)C(F)(F)P(=O)(O)O

>  <MissingHeavyAtoms>  (33) 
0

>  <Model>  (33) 
1

>  <AltIds>  (33) 


>  <pKI>  (33) 
8.77

>  <ChemblID>  (33) 
CHEMBL1232186

>  <standardized_canonical_smiles>  (33) 
NC(=O)[C@H](Cc1ccc(C(F)(F)P(=O)(O)O)cc1)NC(=O)[C@H](Cc1ccccc1)NC(=O)Cc1ccc(C(F)(F)P(=O)(O)O)cc1

$$$$
1G7F_INZ_A_500
     RDKit          3D

 39 40  0  0  0  0  0  0  0  0999 V2000
   16.6310   16.9120   13.4640 C   0  0  0  0  0  0  0  0  0  0  0  0
   17.1120   17.6660   14.4430 O   0  0  0  0  0  0  0  0  0  0  0  0
   17.2430   16.1470   12.7730 O   0  0  0  0  0  0  0  0  0  0  0  0
   13.6200   16.8450   11.3700 C   0  0  0  0  0  0  0  0  0  0  0  0
   13.5290   16.6220    9.9840 C   0  0  0  0  0  0  0  0  0  0  0  0
   12.3420   16.7780    9.2870 C   0  0  0  0  0  0  0  0  0  0  0  0
   11.1940   17.1850    9.9980 C   0  0  0  0  0  0  0  0  0  0  0  0
   11.2680   17.4300   11.3780 C   0  0  0  0  0  0  0  0  0  0  0  0
   12.4780   17.2570   12.0860 C   0  0  0  0  0  0  0  0  0  0  0  0
   15.1150   17.1000   13.2920 C   0  0  0  0  0  0  0  0  0  0  0  0
    9.9130   17.3420    9.2260 C   0  0  0  0  0  0  0  0  0  0  0  0
    9.2290   18.7380    9.4000 C   0  0  0  0  0  0  0  0  0  0  0  0
   14.8490   16.6270   11.9350 O   0  0  0  0  0  0  0  0  0  0  0  0
   14.4610   16.2480   14.3920 C   0  0  0  0  0  0  0  0  0  0  0  0
   14.3100   16.6620   15.5300 O   0  0  0  0  0  0  0  0  0  0  0  0
   14.1010   15.0110   14.0240 O   0  0  0  0  0  0  0  0  0  0  0  0
    7.9790   18.6660    8.6490 N   0  0  0  0  0  0  0  0  0  0  0  0
   10.0600   19.8290    8.6770 C   0  0  0  0  0  0  0  0  0  0  0  0
    6.9170   19.3130    9.1300 C   0  0  0  0  0  0  0  0  0  0  0  0
   10.0390   19.7240    7.3360 N   0  0  0  0  0  0  0  0  0  0  0  0
   10.8760   20.4850    9.3260 O   0  0  0  0  0  0  0  0  0  0  0  0
   10.9840   20.3800    6.4460 C   0  0  0  0  0  0  0  0  0  0  0  0
   11.3500   19.4360    5.2790 C   0  0  0  0  0  0  0  0  0  0  0  0
   11.5130   17.9500    5.7330 C   0  0  0  0  0  0  0  0  0  0  0  0
   11.7960   17.0300    4.5220 C   0  0  0  0  0  0  0  0  0  0  0  0
   13.2900   16.7550    4.4290 C   0  0  0  0  0  0  0  0  0  0  0  0
    7.0490   20.2070   10.0260 O   0  0  0  0  0  0  0  0  0  0  0  0
    5.7550   19.0040    8.5570 N   0  0  0  0  0  0  0  0  0  0  0  0
    4.5540   19.7560    8.9600 C   0  0  0  0  0  0  0  0  0  0  0  0
    4.4420   21.0060    8.0080 C   0  0  0  0  0  0  0  0  0  0  0  0
    3.3390   18.8360    8.8500 C   0  0  0  0  0  0  0  0  0  0  0  0
    3.6810   17.5840    8.5010 O   0  0  0  0  0  0  0  0  0  0  0  0
    2.2300   19.1760    9.1390 O   0  0  0  0  0  0  0  0  0  0  0  0
    4.1860   20.5930    6.5620 C   0  0  0  0  0  0  0  0  0  0  0  0
    5.2330   20.1830    5.7240 C   0  0  0  0  0  0  0  0  0  0  0  0
    4.9830   19.7950    4.3870 C   0  0  0  0  0  0  0  0  0  0  0  0
    3.6800   19.8200    3.8940 C   0  0  0  0  0  0  0  0  0  0  0  0
    2.6250   20.2300    4.7190 C   0  0  0  0  0  0  0  0  0  0  0  0
    2.8770   20.6170    6.0510 C   0  0  0  0  0  0  0  0  0  0  0  0
  2  1  1  0
  3  1  2  0
 10  1  1  0
  5  4  2  0
  9  4  1  0
 13  4  1  0
  6  5  1  0
  7  6  2  0
  8  7  1  0
 11  7  1  0
  9  8  2  0
 13 10  1  0
 14 10  1  0
 12 11  1  0
 17 12  1  0
 18 12  1  0
 15 14  1  0
 16 14  2  0
 19 17  1  0
 20 18  1  0
 21 18  2  0
 27 19  2  0
 28 19  1  0
 22 20  1  0
 23 22  1  0
 24 23  1  0
 25 24  1  0
 26 25  1  0
 29 28  1  0
 30 29  1  0
 31 29  1  0
 34 30  1  0
 32 31  2  0
 33 31  1  0
 35 34  2  0
 39 34  1  0
 36 35  1  0
 37 36  2  0
 38 37  1  0
 39 38  2  0
A    1
C1
A    2
O2
A    3
O3
A    4
C4
A    5
C5
A    6
C6
A    7
C7
A    8
C8
A    9
C9
A   10
C10
A   11
C11
A   12
C12
A   13
O13
A   14
C14
A   15
O15
A   16
O16
A   17
N17
A   18
C18
A   19
C19
A   20
N20
A   21
O21
A   22
C22
A   23
C23
A   24
C24
A   25
C25
A   26
C26
A   27
O27
A   28
N28
A   29
C29
A   30
C30
A   31
C31
A   32
O32
A   33
O33
A   34
C34
A   35
C35
A   36
C36
A   37
C37
A   38
C38
A   39
C39
M  END
>  <Id>  (34) 
1G7F_INZ_A_500

>  <ChainId>  (34) 
A

>  <AsymId>  (34) 
B

>  <SeqNum>  (34) 
500

>  <Name>  (34) 
2-{4-[(2S)-2-[({[(1S)-1-CARBOXY-2-PHENYLETHYL]AMINO}CARBONYL)AMINO]-3-OXO-3-(PENTYLAMINO)PROPYL]PHENOXY}MALONIC ACID

>  <SystematicName>  (34) 
2-[4-[(2S)-2-[[(2S)-1-hydroxy-1-oxo-3-phenyl-propan-2-yl]carbamoylamino]-3-oxo-3-(pentylamino)propyl]phenoxy]propanedioic acid

>  <Synonyms>  (34) 


>  <Type>  (34) 
NON-POLYMER

>  <Formula>  (34) 
C27 H33 N3 O9

>  <ObservedFormula>  (34) 
C27 N3 O9

>  <MolecularWeight>  (34) 
543.566

>  <ModifiedDate>  (34) 
2011-06-04

>  <Parent>  (34) 


>  <OneLetterCode>  (34) 


>  <SubcomponentList>  (34) 


>  <AmbiguousFlag>  (34) 
N

>  <InsertionCode>  (34) 


>  <InstanceId>  (34) 
1G7F_INZ_A_500

>  <ChemCompId>  (34) 
INZ

>  <PdbId>  (34) 
1G7F

>  <ResidueNumber>  (34) 
500

>  <InChI>  (34) 
InChI=1S/C27H33N3O9/c1-2-3-7-14-28-23(31)20(15-18-10-12-19(13-11-18)39-22(25(34)35)26(36)37)29-27(38)30-21(24(32)33)16-17-8-5-4-6-9-17/h4-6,8-13,20-22H,2-3,7,14-16H2,1H3,(H,28,31)(H,32,33)(H,34,35)(H,36,37)(H2,29,30,38)/t20-,21-/m0/s1

>  <InChIKey>  (34) 
BKONADSQADEJJP-SFTDATJTSA-N

>  <SMILES>  (34) 
CCCCCNC(=O)[C@H](Cc1ccc(cc1)OC(C(=O)O)C(=O)O)NC(=O)N[C@@H](Cc2ccccc2)C(=O)O

>  <MissingHeavyAtoms>  (34) 
0

>  <Model>  (34) 
1

>  <AltIds>  (34) 


>  <pKI>  (34) 
5.47

>  <ChemblID>  (34) 
-

>  <standardized_canonical_smiles>  (34) 
CCCCCNC(=O)[C@H](Cc1ccc(OC(C(=O)O)C(=O)O)cc1)NC(=O)N[C@@H](Cc1ccccc1)C(=O)O

$$$$
1NWL_964_A_501
     RDKit          3D

 31 32  0  0  0  0  0  0  0  0999 V2000
   49.0630   34.6970   40.0850 O   0  0  0  0  0  0  0  0  0  0  0  0
   64.6830   31.1400   31.4810 C   0  0  0  0  0  0  0  0  0  0  0  0
   64.0760   30.2340   32.5470 C   0  0  0  0  0  0  0  0  0  0  0  0
   62.7840   30.3600   32.8530 N   0  0  0  0  0  0  0  0  0  0  0  0
   64.7920   29.4170   33.1020 O   0  0  0  0  0  0  0  0  0  0  0  0
   49.3350   33.4820   40.1650 C   0  0  0  0  0  0  0  0  0  0  0  0
   49.5920   32.9380   41.2570 O   0  0  0  0  0  0  0  0  0  0  0  0
   49.6870   32.7420   38.9110 C   0  0  0  0  0  0  0  0  0  0  0  0
   48.8090   31.8350   38.4190 N   0  0  0  0  0  0  0  0  0  0  0  0
   49.0880   31.1520   37.2990 C   0  0  0  0  0  0  0  0  0  0  0  0
   50.2930   31.3780   36.6360 C   0  0  0  0  0  0  0  0  0  0  0  0
   51.1660   32.2750   37.1210 N   0  0  0  0  0  0  0  0  0  0  0  0
   50.8940   32.9710   38.2530 C   0  0  0  0  0  0  0  0  0  0  0  0
   51.9830   33.8610   38.8560 C   0  0  0  0  0  0  0  0  0  0  0  0
   52.1610   33.8640   40.0630 O   0  0  0  0  0  0  0  0  0  0  0  0
   52.9390   34.4840   37.9610 N   0  0  0  0  0  0  0  0  0  0  0  0
   54.3650   34.1790   38.0290 C   0  0  0  0  0  0  0  0  0  0  0  0
   55.1120   35.4000   37.4790 C   0  0  0  0  0  0  0  0  0  0  0  0
   54.9140   35.6230   35.9770 C   0  0  0  0  0  0  0  0  0  0  0  0
   54.6070   32.9360   37.1670 C   0  0  0  0  0  0  0  0  0  0  0  0
   54.4090   33.1840   35.6690 C   0  0  0  0  0  0  0  0  0  0  0  0
   55.2330   34.3690   35.1610 C   0  0  0  0  0  0  0  0  0  0  0  0
   54.9470   34.6260   33.6830 C   0  0  0  0  0  0  0  0  0  0  0  0
   53.8030   34.6500   33.2500 O   0  0  0  0  0  0  0  0  0  0  0  0
   56.1040   34.8420   32.8380 N   0  0  0  0  0  0  0  0  0  0  0  0
   56.5060   33.8630   31.8480 C   0  0  0  0  0  0  0  0  0  0  0  0
   57.6630   33.0370   32.3930 C   0  0  0  0  0  0  0  0  0  0  0  0
   60.5830   32.4370   32.7560 S   0  0  0  0  0  0  0  0  0  0  0  0
   61.7380   30.1680   31.8640 C   0  0  0  0  0  0  0  0  0  0  0  0
   60.4070   30.7290   32.3560 C   0  0  0  0  0  0  0  0  0  0  0  0
   59.1630   33.5190   31.8580 S   0  0  0  0  0  0  0  0  0  0  0  0
  6  1  2  0
  3  2  1  0
  4  3  1  0
  5  3  2  0
 29  4  1  0
  7  6  1  0
  8  6  1  0
  9  8  2  0
 13  8  1  0
 10  9  1  0
 11 10  2  0
 12 11  1  0
 13 12  2  0
 14 13  1  0
 15 14  2  0
 16 14  1  0
 17 16  1  0
 18 17  1  0
 20 17  1  0
 19 18  1  0
 22 19  1  0
 21 20  1  0
 22 21  1  0
 23 22  1  0
 24 23  2  0
 25 23  1  0
 26 25  1  0
 27 26  1  0
 31 27  1  0
 30 28  1  0
 31 28  1  0
 30 29  1  0
A    1
O31
A    2
C1
A    3
C2
A    4
N4
A    5
O3
A    6
C29
A    7
O30
A    8
C24
A    9
N25
A   10
C26
A   11
C27
A   12
N28
A   13
C22
A   14
C21
A   15
O23
A   16
N20
A   17
C17
A   18
C18
A   19
C19
A   20
C16
A   21
C15
A   22
C13
A   23
C12
A   24
O14
A   25
N11
A   26
C10
A   27
C9
A   28
S7
A   29
C5
A   30
C6
A   31
S8
M  END
>  <Id>  (35) 
1NWL_964_A_501

>  <ChainId>  (35) 
A

>  <AsymId>  (35) 
C

>  <SeqNum>  (35) 
501

>  <Name>  (35) 
3-(4-{2-[2-(2-BROMO-ACETYLAMINO)-ETHYLDISULFANYL]-ETHYLCARBAMOYL}-CYCLOHEXYLCARBAMOYL)-PYRAZINE-2-CARBOXYLIC ACID

>  <SystematicName>  (35) 
3-[[4-[2-(2-acetamidoethyldisulfanyl)ethylcarbamoyl]cyclohexyl]carbamoyl]pyrazine-2-carboxylic acid

>  <Synonyms>  (35) 
SP7343-SP7964

>  <Type>  (35) 
NON-POLYMER

>  <Formula>  (35) 
C19 H27 N5 O5 S2

>  <ObservedFormula>  (35) 
C19 S2 N5 O5

>  <MolecularWeight>  (35) 
469.578

>  <ModifiedDate>  (35) 
2011-06-04

>  <Parent>  (35) 


>  <OneLetterCode>  (35) 


>  <SubcomponentList>  (35) 


>  <AmbiguousFlag>  (35) 
N

>  <InsertionCode>  (35) 


>  <InstanceId>  (35) 
1NWL_964_A_501

>  <ChemCompId>  (35) 
964

>  <PdbId>  (35) 
1NWL

>  <ResidueNumber>  (35) 
501

>  <InChI>  (35) 
InChI=1S/C19H27N5O5S2/c1-12(25)20-8-10-30-31-11-9-23-17(26)13-2-4-14(5-3-13)24-18(27)15-16(19(28)29)22-7-6-21-15/h6-7,13-14H,2-5,8-11H2,1H3,(H,20,25)(H,23,26)(H,24,27)(H,28,29)/t13-,14+

>  <InChIKey>  (35) 
OMSKFAYIWROESZ-OKILXGFUSA-N

>  <SMILES>  (35) 
CC(=O)NCCSSCCNC(=O)C1CCC(CC1)NC(=O)c2c(nccn2)C(=O)O

>  <MissingHeavyAtoms>  (35) 
0

>  <Model>  (35) 
1

>  <AltIds>  (35) 


>  <pKI>  (35) 
2.39

>  <ChemblID>  (35) 
-

>  <standardized_canonical_smiles>  (35) 
CC(=O)NCCSSCCNC(=O)[C@H]1CC[C@@H](NC(=O)c2nccnc2C(=O)O)CC1

$$$$
2F6T_1C2_A_608
     RDKit          3D

 26 27  0  0  0  0  0  0  0  0999 V2000
  -10.2890   46.9830   46.3080 O   0  0  0  0  0  0  0  0  0  0  0  0
   -9.1500   47.6340   46.9710 S   0  0  0  0  0  0  0  0  0  0  0  0
   -8.0610   46.6760   47.1530 O   0  0  0  0  0  0  0  0  0  0  0  0
   -8.7600   48.9290   46.3640 O   0  0  0  0  0  0  0  0  0  0  0  0
   -9.6980   48.0460   48.4440 N   0  0  0  0  0  0  0  0  0  0  0  0
  -10.2950   47.1330   49.2730 C   0  0  0  0  0  0  0  0  0  0  0  0
   -9.5240   46.3910   50.1720 C   0  0  0  0  0  0  0  0  0  0  0  0
  -11.6840   46.9590   49.2730 C   0  0  0  0  0  0  0  0  0  0  0  0
  -12.3190   46.0530   50.1310 C   0  0  0  0  0  0  0  0  0  0  0  0
  -13.8250   45.8760   50.1120 C   0  0  0  0  0  0  0  0  0  0  0  0
  -14.3710   45.3040   51.3590 N   0  0  0  0  0  0  0  0  0  0  0  0
  -15.6750   45.0640   51.4650 C   0  0  0  0  0  0  0  0  0  0  0  0
  -16.2550   44.5920   52.4330 O   0  0  0  0  0  0  0  0  0  0  0  0
  -16.3980   45.4300   50.2750 O   0  0  0  0  0  0  0  0  0  0  0  0
  -17.8140   45.4510   50.0410 C   0  0  0  0  0  0  0  0  0  0  0  0
  -18.0090   45.6610   48.5410 C   0  0  0  0  0  0  0  0  0  0  0  0
  -18.4640   46.5780   50.8350 C   0  0  0  0  0  0  0  0  0  0  0  0
  -18.3630   44.0820   50.4060 C   0  0  0  0  0  0  0  0  0  0  0  0
  -13.4950   44.9840   52.4800 C   0  0  0  0  0  0  0  0  0  0  0  0
  -13.2760   46.1750   53.3680 C   0  0  0  0  0  0  0  0  0  0  0  0
  -12.4680   46.1370   54.2770 O   0  0  0  0  0  0  0  0  0  0  0  0
  -13.9980   47.2640   53.1280 N   0  0  0  0  0  0  0  0  0  0  0  0
  -13.8350   48.4550   53.9550 C   0  0  0  0  0  0  0  0  0  0  0  0
  -12.2180   44.3430   51.9280 C   0  0  0  0  0  0  0  0  0  0  0  0
  -11.5380   45.3190   50.9990 C   0  0  0  0  0  0  0  0  0  0  0  0
  -10.1510   45.4740   51.0300 C   0  0  0  0  0  0  0  0  0  0  0  0
  2  1  1  0
  3  2  2  0
  4  2  2  0
  5  2  1  0
  6  5  1  0
  7  6  2  0
  8  6  1  0
 26  7  1  0
  9  8  2  0
 10  9  1  0
 25  9  1  0
 11 10  1  0
 12 11  1  0
 19 11  1  0
 13 12  2  0
 14 12  1  0
 15 14  1  0
 16 15  1  0
 17 15  1  0
 18 15  1  0
 20 19  1  0
 24 19  1  0
 21 20  2  0
 22 20  1  0
 23 22  1  0
 25 24  1  0
 26 25  2  0
A    1
O6
A    2
S1
A    3
O4
A    4
O5
A    5
N3
A    6
C15
A    7
C16
A    8
C14
A    9
C13
A   10
C12
A   11
N2
A   12
C7
A   13
O3
A   14
O2
A   15
C8
A   16
C11
A   17
C10
A   18
C9
A   19
C4
A   20
C5
A   21
O1
A   22
N1
A   23
C6
A   24
C3
A   25
C2
A   26
C1
M  END
>  <Id>  (36) 
2F6T_1C2_A_608

>  <ChainId>  (36) 
A

>  <AsymId>  (36) 
H

>  <SeqNum>  (36) 
608

>  <Name>  (36) 
3(S)-METHYLCARBAMOYL-7-SULFOAMINO-3,4-DIHYDRO-1H-ISOQUINOLINE-2-CARBOXYLIC ACID TERT-BUTYL ESTER

>  <SystematicName>  (36) 
[(3S)-3-(methylcarbamoyl)-2-[(2-methylpropan-2-yl)oxycarbonyl]-3,4-dihydro-1H-isoquinolin-7-yl]sulfamic acid

>  <Synonyms>  (36) 


>  <Type>  (36) 
NON-POLYMER

>  <Formula>  (36) 
C16 H23 N3 O6 S

>  <ObservedFormula>  (36) 
S C16 N3 O6

>  <MolecularWeight>  (36) 
385.435

>  <ModifiedDate>  (36) 
2011-06-04

>  <Parent>  (36) 


>  <OneLetterCode>  (36) 


>  <SubcomponentList>  (36) 


>  <AmbiguousFlag>  (36) 
N

>  <InsertionCode>  (36) 


>  <InstanceId>  (36) 
2F6T_1C2_A_608

>  <ChemCompId>  (36) 
1C2

>  <PdbId>  (36) 
2F6T

>  <ResidueNumber>  (36) 
608

>  <InChI>  (36) 
InChI=1S/C16H23N3O6S/c1-16(2,3)25-15(21)19-9-11-7-12(18-26(22,23)24)6-5-10(11)8-13(19)14(20)17-4/h5-7,13,18H,8-9H2,1-4H3,(H,17,20)(H,22,23,24)/t13-/m0/s1

>  <InChIKey>  (36) 
PPSSYXOFPICMQD-ZDUSSCGKSA-N

>  <SMILES>  (36) 
CC(C)(C)OC(=O)N1Cc2cc(ccc2C[C@H]1C(=O)NC)NS(=O)(=O)O

>  <MissingHeavyAtoms>  (36) 
0

>  <Model>  (36) 
1

>  <AltIds>  (36) 


>  <pKI>  (36) 
4.62

>  <ChemblID>  (36) 
-

>  <standardized_canonical_smiles>  (36) 
CNC(=O)[C@@H]1Cc2ccc(NS(=O)(=O)O)cc2CN1C(=O)OC(C)(C)C

$$$$
4Y14_C0A_B_404
     RDKit          3D

 25 25  0  0  0  0  0  0  0  0999 V2000
   18.4720    6.7000  -53.0520 C   0  0  0  0  0  0  0  0  0  0  0  0
   17.1040    6.7650  -52.6530 N   0  0  0  0  0  0  0  0  0  0  0  0
   16.7850    6.9110  -51.2810 C   0  0  0  0  0  0  0  0  0  0  0  0
   17.6750    6.9720  -50.4570 O   0  0  0  0  0  0  0  0  0  0  0  0
   15.3350    6.9770  -50.8520 C   0  0  0  0  0  0  0  0  0  0  0  0
   14.6960    5.6270  -51.1000 C   0  0  0  0  0  0  0  0  0  0  0  0
   15.3820    4.4910  -50.3640 C   0  0  0  0  0  0  0  0  0  0  0  0
   15.8760    3.3990  -51.0600 C   0  0  0  0  0  0  0  0  0  0  0  0
   16.4950    2.3650  -50.3730 C   0  0  0  0  0  0  0  0  0  0  0  0
   16.6210    2.3930  -48.9890 C   0  0  0  0  0  0  0  0  0  0  0  0
   17.3280    1.2100  -48.3430 C   0  0  0  0  0  0  0  0  0  0  0  0
   18.0620    1.5970  -47.2900 F   0  0  0  0  0  0  0  0  0  0  0  0
   18.1440    0.6960  -49.2770 F   0  0  0  0  0  0  0  0  0  0  0  0
   16.2350   -0.1650  -47.8440 P   0  0  0  0  0  0  0  0  0  0  0  0
   17.1150   -1.2350  -47.2480 O   0  0  0  0  0  0  0  0  0  0  0  0
   15.5630   -0.6950  -49.0900 O   0  0  0  0  0  0  0  0  0  0  0  0
   15.2200    0.3050  -46.8300 O   0  0  0  0  0  0  0  0  0  0  0  0
   16.1270    3.5010  -48.2880 C   0  0  0  0  0  0  0  0  0  0  0  0
   16.2440    3.7000  -46.3810 Br  0  0  0  0  0  0  0  0  0  0  0  0
   15.5110    4.5310  -48.9850 C   0  0  0  0  0  0  0  0  0  0  0  0
   14.6590    7.9600  -51.6250 N   0  0  0  0  0  0  0  0  0  0  0  0
   14.7320    9.5520  -51.2140 S   0  0  0  0  0  0  0  0  0  0  0  0
   16.2540   10.2660  -51.7730 C   0  0  0  0  0  0  0  0  0  0  0  0
   14.5780    9.7170  -49.7980 O   0  0  0  0  0  0  0  0  0  0  0  0
   13.5870   10.2660  -51.7140 O   0  0  0  0  0  0  0  0  0  0  0  0
  2  1  1  0
  3  2  1  0
  4  3  2  0
  5  3  1  0
  6  5  1  0
 21  5  1  0
  7  6  1  0
  8  7  2  0
 20  7  1  0
  9  8  1  0
 10  9  2  0
 11 10  1  0
 18 10  1  0
 12 11  1  0
 13 11  1  0
 14 11  1  0
 15 14  1  0
 16 14  2  0
 17 14  1  0
 19 18  1  0
 20 18  2  0
 22 21  1  0
 23 22  1  0
 24 22  2  0
 25 22  2  0
A    1
C01
A    2
N02
A    3
C03
A    4
O04
A    5
C05
A    6
C06
A    7
C07
A    8
C08
A    9
C09
A   10
C10
A   11
C11
A   12
F12
A   13
F13
A   14
P14
A   15
O15
A   16
O16
A   17
O17
A   18
C18
A   19
BR1
A   20
C20
A   21
N21
A   22
S22
A   23
C23
A   24
O24
A   25
O25
M  END
>  <Id>  (37) 
4Y14_C0A_B_404

>  <ChainId>  (37) 
B

>  <AsymId>  (37) 
M

>  <SeqNum>  (37) 
404

>  <Name>  (37) 
3-bromo-4-[difluoro(phosphono)methyl]-N-methyl-Nalpha-(methylsulfonyl)-L-phenylalaninamide

>  <SystematicName>  (37) 
[[2-bromanyl-4-[(2S)-3-(methylamino)-2-(methylsulfonylamino)-3-oxidanylidene-propyl]phenyl]-bis(fluoranyl)methyl]phosphonic acid

>  <Synonyms>  (37) 


>  <Type>  (37) 
NON-POLYMER

>  <Formula>  (37) 
C12 H16 Br F2 N2 O6 P S

>  <ObservedFormula>  (37) 
P Br C12 S F2 N2 O6

>  <MolecularWeight>  (37) 
465.205

>  <ModifiedDate>  (37) 
2015-07-31

>  <Parent>  (37) 


>  <OneLetterCode>  (37) 


>  <SubcomponentList>  (37) 


>  <AmbiguousFlag>  (37) 
N

>  <InsertionCode>  (37) 


>  <InstanceId>  (37) 
4Y14_C0A_B_404

>  <ChemCompId>  (37) 
C0A

>  <PdbId>  (37) 
4Y14

>  <ResidueNumber>  (37) 
404

>  <InChI>  (37) 
InChI=1S/C12H16BrF2N2O6PS/c1-16-11(18)10(17-25(2,22)23)6-7-3-4-8(9(13)5-7)12(14,15)24(19,20)21/h3-5,10,17H,6H2,1-2H3,(H,16,18)(H2,19,20,21)/t10-/m0/s1

>  <InChIKey>  (37) 
GNQQLTLSVIWPPQ-JTQLQIEISA-N

>  <SMILES>  (37) 
CNC(=O)[C@H](Cc1ccc(c(c1)Br)C(F)(F)P(=O)(O)O)NS(=O)(=O)C

>  <MissingHeavyAtoms>  (37) 
0

>  <Model>  (37) 
1

>  <AltIds>  (37) 


>  <pKI>  (37) 
7.4

>  <ChemblID>  (37) 
-

>  <standardized_canonical_smiles>  (37) 
CNC(=O)[C@H](Cc1ccc(C(F)(F)P(=O)(O)O)c(Br)c1)NS(C)(=O)=O

$$$$
2ZMM_35B_A_307
     RDKit          3D

 31 33  0  0  0  0  0  0  0  0999 V2000
   50.0570   10.7540   -2.5090 C   0  0  0  0  0  0  0  0  0  0  0  0
   49.6410    9.2770   -0.5530 C   0  0  0  0  0  0  0  0  0  0  0  0
   47.3210    9.4030    0.3500 C   0  0  0  0  0  0  0  0  0  0  0  0
   46.2340    8.6670   -0.1410 C   0  0  0  0  0  0  0  0  0  0  0  0
   44.9570    9.2310   -0.1530 C   0  0  0  0  0  0  0  0  0  0  0  0
   44.7460   10.5240    0.3240 C   0  0  0  0  0  0  0  0  0  0  0  0
   49.1950   10.2140   -1.4830 N   0  0  0  0  0  0  0  0  0  0  0  0
   45.8180   11.2740    0.8150 C   0  0  0  0  0  0  0  0  0  0  0  0
   50.8010    8.8580   -0.5660 O   0  0  0  0  0  0  0  0  0  0  0  0
   47.0970   10.7070    0.8260 C   0  0  0  0  0  0  0  0  0  0  0  0
   45.6110   12.6340    1.3100 C   0  0  0  0  0  0  0  0  0  0  0  0
   46.1750   13.3160    2.3680 C   0  0  0  0  0  0  0  0  0  0  0  0
   45.6830   14.6450    2.5200 C   0  0  0  0  0  0  0  0  0  0  0  0
   44.7930   14.9560    1.5080 C   0  0  0  0  0  0  0  0  0  0  0  0
   44.0370   16.3110    1.2730 C   0  0  0  0  0  0  0  0  0  0  0  0
   47.3220   16.1890    3.2570 C   0  0  0  0  0  0  0  0  0  0  0  0
   47.6360   17.0070    4.5180 C   0  0  0  0  0  0  0  0  0  0  0  0
   48.9960    7.8730    1.4450 C   0  0  0  0  0  0  0  0  0  0  0  0
   48.8670    6.4000    1.0090 C   0  0  0  0  0  0  0  0  0  0  0  0
   48.0750    5.5730    2.0210 C   0  0  0  0  0  0  0  0  0  0  0  0
   48.6020    5.7170    3.4480 C   0  0  0  0  0  0  0  0  0  0  0  0
   48.7840    7.1760    3.8620 C   0  0  0  0  0  0  0  0  0  0  0  0
   48.2940    8.1430    2.7840 C   0  0  0  0  0  0  0  0  0  0  0  0
   48.6560    8.8640    0.3800 N   0  0  0  0  0  0  0  0  0  0  0  0
   44.5220   13.6420    0.4520 S   0  0  0  0  0  0  0  0  0  0  0  0
   43.8980   17.1050    2.2490 O   0  0  0  0  0  0  0  0  0  0  0  0
   43.6330   16.4930    0.0830 O   0  0  0  0  0  0  0  0  0  0  0  0
   46.0740   15.5200    3.4910 O   0  0  0  0  0  0  0  0  0  0  0  0
   46.7510   17.0080    5.4220 O   0  0  0  0  0  0  0  0  0  0  0  0
   48.7580   17.5880    4.5160 O   0  0  0  0  0  0  0  0  0  0  0  0
   47.4230   12.5860    3.5860 Br  0  0  0  0  0  0  0  0  0  0  0  0
  7  1  1  0
  7  2  1  0
  9  2  2  0
 24  2  1  0
  4  3  2  0
 10  3  1  0
 24  3  1  0
  5  4  1  0
  6  5  2  0
  8  6  1  0
 10  8  2  0
 11  8  1  0
 12 11  2  0
 25 11  1  0
 13 12  1  0
 31 12  1  0
 14 13  2  0
 28 13  1  0
 15 14  1  0
 25 14  1  0
 26 15  1  0
 27 15  2  0
 17 16  1  0
 28 16  1  0
 29 17  1  0
 30 17  2  0
 19 18  1  0
 23 18  1  0
 24 18  1  0
 20 19  1  0
 21 20  1  0
 22 21  1  0
 23 22  1  0
A    1
C1
A    2
C2
A    3
C3
A    4
C4
A    5
C5
A    6
C6
A    7
N1
A    8
C7
A    9
O1
A   10
C8
A   11
C9
A   12
C10
A   13
C11
A   14
C12
A   15
C13
A   16
C14
A   17
C15
A   18
C16
A   19
C17
A   20
C18
A   21
C19
A   22
C20
A   23
C21
A   24
N2
A   25
S1
A   26
O2
A   27
O3
A   28
O4
A   29
O5
A   30
O6
A   31
BR1
M  END
>  <Id>  (38) 
2ZMM_35B_A_307

>  <ChainId>  (38) 
A

>  <AsymId>  (38) 
I

>  <SeqNum>  (38) 
307

>  <Name>  (38) 
4-bromo-3-(carboxymethoxy)-5-{3-[cyclohexyl(methylcarbamoyl)amino]phenyl}thiophene-2-carboxylic acid

>  <SystematicName>  (38) 
4-bromo-3-(carboxymethyloxy)-5-[3-(cyclohexyl-(methylcarbamoyl)amino)phenyl]thiophene-2-carboxylic acid

>  <Synonyms>  (38) 


>  <Type>  (38) 
NON-POLYMER

>  <Formula>  (38) 
C21 H23 Br N2 O6 S

>  <ObservedFormula>  (38) 
Br C21 S N2 O6

>  <MolecularWeight>  (38) 
511.386

>  <ModifiedDate>  (38) 
2011-06-04

>  <Parent>  (38) 


>  <OneLetterCode>  (38) 


>  <SubcomponentList>  (38) 


>  <AmbiguousFlag>  (38) 
N

>  <InsertionCode>  (38) 


>  <InstanceId>  (38) 
2ZMM_35B_A_307

>  <ChemCompId>  (38) 
35B

>  <PdbId>  (38) 
2ZMM

>  <ResidueNumber>  (38) 
307

>  <InChI>  (38) 
InChI=1S/C21H23BrN2O6S/c1-23-21(29)24(13-7-3-2-4-8-13)14-9-5-6-12(10-14)18-16(22)17(30-11-15(25)26)19(31-18)20(27)28/h5-6,9-10,13H,2-4,7-8,11H2,1H3,(H,23,29)(H,25,26)(H,27,28)

>  <InChIKey>  (38) 
PXYOQUGPJYIRGZ-UHFFFAOYSA-N

>  <SMILES>  (38) 
CNC(=O)N(c1cccc(c1)c2c(c(c(s2)C(=O)O)OCC(=O)O)Br)C3CCCCC3

>  <MissingHeavyAtoms>  (38) 
0

>  <Model>  (38) 
1

>  <AltIds>  (38) 


>  <pKI>  (38) 
7.6

>  <ChemblID>  (38) 
-

>  <standardized_canonical_smiles>  (38) 
CNC(=O)N(c1cccc(-c2sc(C(=O)O)c(OCC(=O)O)c2Br)c1)C1CCCCC1

$$$$
2BGD_T1D_A_1298
     RDKit          3D

 22 24  0  0  0  0  0  0  0  0999 V2000
   -4.4220   58.9030    5.3260 O   0  0  0  0  0  0  0  0  0  0  0  0
   -3.4820   59.6520    5.1790 C   0  0  0  0  0  0  0  0  0  0  0  0
   -2.5700   59.9500    6.1100 N   0  0  0  0  0  0  0  0  0  0  0  0
   -1.4680   60.9650    5.5480 S   0  0  0  0  0  0  0  0  0  0  0  0
   -0.0620   60.2920    5.4420 O   0  0  0  0  0  0  0  0  0  0  0  0
   -1.4160   62.3040    6.3200 O   0  0  0  0  0  0  0  0  0  0  0  0
   -2.0430   61.1680    4.1160 N   0  0  0  0  0  0  0  0  0  0  0  0
   -3.2370   60.3670    3.8620 C   0  0  0  0  0  0  0  0  0  0  0  0
   -1.4980   61.9590    3.0680 C   0  0  0  0  0  0  0  0  0  0  0  0
   -1.7970   63.3200    2.8900 C   0  0  0  0  0  0  0  0  0  0  0  0
   -1.2190   64.0460    1.8200 C   0  0  0  0  0  0  0  0  0  0  0  0
   -0.3720   63.3760    0.9220 C   0  0  0  0  0  0  0  0  0  0  0  0
   -0.0780   62.0220    1.0950 C   0  0  0  0  0  0  0  0  0  0  0  0
   -0.6420   61.3190    2.1700 C   0  0  0  0  0  0  0  0  0  0  0  0
   -0.3810   59.9920    2.3600 O   0  0  0  0  0  0  0  0  0  0  0  0
    0.3260   59.1890    1.4010 C   0  0  0  0  0  0  0  0  0  0  0  0
   -1.4800   65.4040    1.5810 C   0  0  0  0  0  0  0  0  0  0  0  0
   -2.6940   65.9740    1.9990 C   0  0  0  0  0  0  0  0  0  0  0  0
   -2.9850   67.3250    1.7420 C   0  0  0  0  0  0  0  0  0  0  0  0
   -2.0730   68.1090    1.0350 C   0  0  0  0  0  0  0  0  0  0  0  0
   -0.8570   67.5330    0.6020 C   0  0  0  0  0  0  0  0  0  0  0  0
   -0.5590   66.1920    0.8690 C   0  0  0  0  0  0  0  0  0  0  0  0
  2  1  2  0
  3  2  1  0
  8  2  1  0
  4  3  1  0
  5  4  2  0
  6  4  2  0
  7  4  1  0
  8  7  1  0
  9  7  1  0
 10  9  2  0
 14  9  1  0
 11 10  1  0
 12 11  2  0
 17 11  1  0
 13 12  1  0
 14 13  2  0
 15 14  1  0
 16 15  1  0
 18 17  2  0
 22 17  1  0
 19 18  1  0
 20 19  2  0
 21 20  1  0
 22 21  2  0
A    1
O
A    2
C
A    3
N
A    4
S
A    5
O1
A    6
O2
A    7
N1
A    8
C1
A    9
C2
A   10
C3
A   11
C4
A   12
C5
A   13
C6
A   14
C7
A   15
O3
A   16
C8
A   17
C9
A   18
C10
A   19
C11
A   20
C12
A   21
C13
A   22
C14
M  END
>  <Id>  (39) 
2BGD_T1D_A_1298

>  <ChainId>  (39) 
A

>  <AsymId>  (39) 
B

>  <SeqNum>  (39) 
1298

>  <Name>  (39) 
5-(4-METHOXYBIPHENYL-3-YL)-1,2,5-THIADIAZOLIDIN-3-ONE 1,1-DIOXIDE

>  <SystematicName>  (39) 
5-(2-methoxy-5-phenyl-phenyl)-1,1-dioxo-1,2,5-thiadiazolidin-3-one

>  <Synonyms>  (39) 


>  <Type>  (39) 
NON-POLYMER

>  <Formula>  (39) 
C15 H14 N2 O4 S

>  <ObservedFormula>  (39) 
C15 S N2 O4

>  <MolecularWeight>  (39) 
318.348

>  <ModifiedDate>  (39) 
2011-06-04

>  <Parent>  (39) 


>  <OneLetterCode>  (39) 


>  <SubcomponentList>  (39) 


>  <AmbiguousFlag>  (39) 
N

>  <InsertionCode>  (39) 


>  <InstanceId>  (39) 
2BGD_T1D_A_1298

>  <ChemCompId>  (39) 
T1D

>  <PdbId>  (39) 
2BGD

>  <ResidueNumber>  (39) 
1298

>  <InChI>  (39) 
InChI=1S/C15H14N2O4S/c1-21-14-8-7-12(11-5-3-2-4-6-11)9-13(14)17-10-15(18)16-22(17,19)20/h2-9H,10H2,1H3,(H,16,18)

>  <InChIKey>  (39) 
IGXKSKWHHHYBFM-UHFFFAOYSA-N

>  <SMILES>  (39) 
COc1ccc(cc1N2CC(=O)NS2(=O)=O)c3ccccc3

>  <MissingHeavyAtoms>  (39) 
0

>  <Model>  (39) 
1

>  <AltIds>  (39) 


>  <pKI>  (39) 
5.62

>  <ChemblID>  (39) 
-

>  <standardized_canonical_smiles>  (39) 
COc1ccc(-c2ccccc2)cc1N1CC(=O)NS1(=O)=O

$$$$
3EAX_LZP_A_322
     RDKit          3D

 48 52  0  0  0  0  0  0  0  0999 V2000
   39.0610   20.1840   66.4650 C   0  0  0  0  0  0  0  0  0  0  0  0
   38.0960   19.7160   67.4540 C   0  0  0  0  0  0  0  0  0  0  0  0
   37.7250   18.1870   67.5110 C   0  0  0  0  0  0  0  0  0  0  0  0
   38.3640   17.2550   66.5610 C   0  0  0  0  0  0  0  0  0  0  0  0
   39.3540   17.7090   65.5410 C   0  0  0  0  0  0  0  0  0  0  0  0
   39.6880   19.2530   65.5270 C   0  0  0  0  0  0  0  0  0  0  0  0
   40.0220   16.6860   64.5380 C   0  0  0  0  0  0  0  0  0  0  0  0
   41.2770   14.8760   65.9010 C   0  0  0  0  0  0  0  0  0  0  0  0
   42.5290   15.6950   66.0930 C   0  0  0  0  0  0  0  0  0  0  0  0
   43.6310   15.2590   66.9610 C   0  0  0  0  0  0  0  0  0  0  0  0
   43.5380   13.9930   67.6780 C   0  0  0  0  0  0  0  0  0  0  0  0
   42.3310   13.1270   67.5400 C   0  0  0  0  0  0  0  0  0  0  0  0
   41.2360   13.5900   66.6570 C   0  0  0  0  0  0  0  0  0  0  0  0
   42.2480   11.8010   68.2990 C   0  0  0  0  0  0  0  0  0  0  0  0
   42.4710   11.7870   69.8560 C   0  0  0  0  0  0  0  0  0  0  0  0
   43.7370   11.0780   70.4450 C   0  0  0  0  0  0  0  0  0  0  0  0
   44.1490   11.3840   71.9140 C   0  0  0  0  0  0  0  0  0  0  0  0
   45.0980   13.0140   73.7520 C   0  0  0  0  0  0  0  0  0  0  0  0
   44.6430   14.5040   74.1230 C   0  0  0  0  0  0  0  0  0  0  0  0
   43.8990   15.0420   71.7230 C   0  0  0  0  0  0  0  0  0  0  0  0
   44.8680   13.8480   71.3220 C   0  0  0  0  0  0  0  0  0  0  0  0
   44.6740   12.6730   72.3020 N   0  0  0  0  0  0  0  0  0  0  0  0
   43.4830   14.9040   73.1750 N   0  0  0  0  0  0  0  0  0  0  0  0
   40.1960   15.3090   65.0470 O   0  0  0  0  0  0  0  0  0  0  0  0
   42.0070   10.7380   67.7150 O   0  0  0  0  0  0  0  0  0  0  0  0
   44.3940   10.2750   69.7640 O   0  0  0  0  0  0  0  0  0  0  0  0
   44.0090   10.4560   72.7380 O   0  0  0  0  0  0  0  0  0  0  0  0
   42.1980   15.1260   73.7160 C   0  0  0  0  0  0  0  0  0  0  0  0
   41.0070   15.4920   72.7960 C   0  0  0  0  0  0  0  0  0  0  0  0
   39.6280   14.8530   73.1470 C   0  0  0  0  0  0  0  0  0  0  0  0
   39.3660   13.3290   72.8740 C   0  0  0  0  0  0  0  0  0  0  0  0
   40.0130   12.5250   75.3030 C   0  0  0  0  0  0  0  0  0  0  0  0
   39.9440   12.2890   73.8450 C   0  0  0  0  0  0  0  0  0  0  0  0
   40.4600   10.9930   73.3220 C   0  0  0  0  0  0  0  0  0  0  0  0
   41.0160    9.9890   74.2310 C   0  0  0  0  0  0  0  0  0  0  0  0
   41.0700   10.2570   75.6720 C   0  0  0  0  0  0  0  0  0  0  0  0
   40.5690   11.5400   76.2730 C   0  0  0  0  0  0  0  0  0  0  0  0
   39.4760   12.0580   78.5290 C   0  0  0  0  0  0  0  0  0  0  0  0
   37.7170   14.1860   78.4040 C   0  0  0  0  0  0  0  0  0  0  0  0
   39.1490   13.5860   78.6920 C   0  0  0  0  0  0  0  0  0  0  0  0
   40.1980   14.5460   79.1300 C   0  0  0  0  0  0  0  0  0  0  0  0
   39.9270   15.9840   79.2900 C   0  0  0  0  0  0  0  0  0  0  0  0
   38.4840   16.5360   78.9900 C   0  0  0  0  0  0  0  0  0  0  0  0
   37.4390   15.6140   78.5600 C   0  0  0  0  0  0  0  0  0  0  0  0
   41.9550   15.0220   74.9460 O   0  0  0  0  0  0  0  0  0  0  0  0
   41.1340   16.2490   71.8240 O   0  0  0  0  0  0  0  0  0  0  0  0
   38.6990   12.9980   71.8830 O   0  0  0  0  0  0  0  0  0  0  0  0
   40.6430   11.7700   77.6880 O   0  0  0  0  0  0  0  0  0  0  0  0
  2  1  2  0
  6  1  1  0
  3  2  1  0
  4  3  2  0
  5  4  1  0
  6  5  2  0
  7  5  1  0
 24  7  1  0
  9  8  2  0
 13  8  1  0
 24  8  1  0
 10  9  1  0
 11 10  2  0
 12 11  1  0
 13 12  2  0
 14 12  1  0
 15 14  1  0
 25 14  2  0
 16 15  1  0
 17 16  1  0
 26 16  2  0
 22 17  1  0
 27 17  2  0
 19 18  1  0
 22 18  1  0
 23 19  1  0
 21 20  1  0
 23 20  1  0
 22 21  1  0
 28 23  1  0
 29 28  1  0
 45 28  2  0
 30 29  1  0
 46 29  2  0
 31 30  1  0
 33 31  1  0
 47 31  2  0
 33 32  2  0
 37 32  1  0
 34 33  1  0
 35 34  2  0
 36 35  1  0
 37 36  2  0
 48 37  1  0
 40 38  1  0
 48 38  1  0
 40 39  2  0
 44 39  1  0
 41 40  1  0
 42 41  2  0
 43 42  1  0
 44 43  2  0
A    1
C1
A    2
C2
A    3
C3
A    4
C4
A    5
C5
A    6
C6
A    7
C7
A    8
C8
A    9
C9
A   10
C10
A   11
C11
A   12
C12
A   13
C13
A   14
C14
A   15
C15
A   16
C16
A   17
C17
A   18
C18
A   19
C19
A   20
C20
A   21
C21
A   22
N1
A   23
N2
A   24
O1
A   25
O2
A   26
O3
A   27
O4
A   28
C22
A   29
C23
A   30
C24
A   31
C25
A   32
C26
A   33
C27
A   34
C28
A   35
C29
A   36
C30
A   37
C31
A   38
C32
A   39
C33
A   40
C34
A   41
C35
A   42
C36
A   43
C37
A   44
C38
A   45
O5
A   46
O6
A   47
O7
A   48
O8
M  END
>  <Id>  (40) 
3EAX_LZP_A_322

>  <ChainId>  (40) 
A

>  <AsymId>  (40) 
B

>  <SeqNum>  (40) 
322

>  <Name>  (40) 
4,4'-piperazine-1,4-diylbis{1-[3-(benzyloxy)phenyl]-4-oxobutane-1,3-dione}

>  <SystematicName>  (40) 
1-[4-[2,4-dioxo-4-(3-phenylmethoxyphenyl)butanoyl]piperazin-1-yl]-4-(3-phenylmethoxyphenyl)butane-1,2,4-trione

>  <Synonyms>  (40) 


>  <Type>  (40) 
NON-POLYMER

>  <Formula>  (40) 
C38 H34 N2 O8

>  <ObservedFormula>  (40) 
C38 N2 O8

>  <MolecularWeight>  (40) 
646.685

>  <ModifiedDate>  (40) 
2011-06-04

>  <Parent>  (40) 


>  <OneLetterCode>  (40) 


>  <SubcomponentList>  (40) 


>  <AmbiguousFlag>  (40) 
N

>  <InsertionCode>  (40) 


>  <InstanceId>  (40) 
3EAX_LZP_A_322

>  <ChemCompId>  (40) 
LZP

>  <PdbId>  (40) 
3EAX

>  <ResidueNumber>  (40) 
322

>  <InChI>  (40) 
InChI=1S/C38H34N2O8/c41-33(29-13-7-15-31(21-29)47-25-27-9-3-1-4-10-27)23-35(43)37(45)39-17-19-40(20-18-39)38(46)36(44)24-34(42)30-14-8-16-32(22-30)48-26-28-11-5-2-6-12-28/h1-16,21-22H,17-20,23-26H2

>  <InChIKey>  (40) 
WITKJXOKUUWDOW-UHFFFAOYSA-N

>  <SMILES>  (40) 
c1ccc(cc1)COc2cccc(c2)C(=O)CC(=O)C(=O)N3CCN(CC3)C(=O)C(=O)CC(=O)c4cccc(c4)OCc5ccccc5

>  <MissingHeavyAtoms>  (40) 
0

>  <Model>  (40) 
1

>  <AltIds>  (40) 


>  <pKI>  (40) 
4.92

>  <ChemblID>  (40) 
-

>  <standardized_canonical_smiles>  (40) 
O=C(CC(=O)c1cccc(OCc2ccccc2)c1)C(=O)N1CCN(C(=O)C(=O)CC(=O)c2cccc(OCc3ccccc3)c2)CC1

$$$$
2HB1_512_A_800
     RDKit          3D

 14 14  0  0  0  0  0  0  0  0999 V2000
   45.2050   12.9580    1.1080 C   0  0  0  0  0  0  0  0  0  0  0  0
   45.7690   13.3870    2.3300 C   0  0  0  0  0  0  0  0  0  0  0  0
   44.4110   14.2720    0.3820 S   0  0  0  0  0  0  0  0  0  0  0  0
   44.7680   15.3960    1.6130 C   0  0  0  0  0  0  0  0  0  0  0  0
   45.5320   14.7580    2.6290 C   0  0  0  0  0  0  0  0  0  0  0  0
   44.3330   16.7240    1.5480 C   0  0  0  0  0  0  0  0  0  0  0  0
   43.6320   17.0320    0.4400 O   0  0  0  0  0  0  0  0  0  0  0  0
   46.0460   15.3500    3.8450 O   0  0  0  0  0  0  0  0  0  0  0  0
   47.2700   16.0930    3.6600 C   0  0  0  0  0  0  0  0  0  0  0  0
   47.5730   16.9740    4.8740 C   0  0  0  0  0  0  0  0  0  0  0  0
   48.7260   17.6560    4.7940 O   0  0  0  0  0  0  0  0  0  0  0  0
   44.5590   17.5410    2.4090 O   0  0  0  0  0  0  0  0  0  0  0  0
   46.8560   17.0500    5.8220 O   0  0  0  0  0  0  0  0  0  0  0  0
   46.7460   12.2290    3.4440 Br  0  0  0  0  0  0  0  0  0  0  0  0
  2  1  2  0
  3  1  1  0
  5  2  1  0
 14  2  1  0
  4  3  1  0
  5  4  2  0
  6  4  1  0
  8  5  1  0
  7  6  2  0
 12  6  1  0
  9  8  1  0
 10  9  1  0
 11 10  2  0
 13 10  1  0
A    1
C1
A    2
C2
A    3
S3
A    4
C4
A    5
C5
A    6
C6
A    7
O7
A    8
O8
A    9
C9
A   10
C10
A   11
O13
A   12
O14
A   13
O15
A   14
BR19
M  END
>  <Id>  (41) 
2HB1_512_A_800

>  <ChainId>  (41) 
A

>  <AsymId>  (41) 
B

>  <SeqNum>  (41) 
800

>  <Name>  (41) 
4-BROMO-3-(CARBOXYMETHOXY)THIOPHENE-2-CARBOXYLIC ACID

>  <SystematicName>  (41) 
4-bromo-3-(carboxymethyloxy)thiophene-2-carboxylic acid

>  <Synonyms>  (41) 


>  <Type>  (41) 
NON-POLYMER

>  <Formula>  (41) 
C7 H5 Br O5 S

>  <ObservedFormula>  (41) 
Br C7 S O5

>  <MolecularWeight>  (41) 
281.081

>  <ModifiedDate>  (41) 
2011-06-04

>  <Parent>  (41) 


>  <OneLetterCode>  (41) 


>  <SubcomponentList>  (41) 


>  <AmbiguousFlag>  (41) 
N

>  <InsertionCode>  (41) 


>  <InstanceId>  (41) 
2HB1_512_A_800

>  <ChemCompId>  (41) 
512

>  <PdbId>  (41) 
2HB1

>  <ResidueNumber>  (41) 
800

>  <InChI>  (41) 
InChI=1S/C7H5BrO5S/c8-3-2-14-6(7(11)12)5(3)13-1-4(9)10/h2H,1H2,(H,9,10)(H,11,12)

>  <InChIKey>  (41) 
VDPVVSMGWNMCBP-UHFFFAOYSA-N

>  <SMILES>  (41) 
c1c(c(c(s1)C(=O)O)OCC(=O)O)Br

>  <MissingHeavyAtoms>  (41) 
0

>  <Model>  (41) 
1

>  <AltIds>  (41) 


>  <pKI>  (41) 
3.8

>  <ChemblID>  (41) 
-

>  <standardized_canonical_smiles>  (41) 
O=C(O)COc1c(Br)csc1C(=O)O

$$$$
2B07_598_A_301
     RDKit          3D

 37 41  0  0  0  0  0  0  0  0999 V2000
   44.3620   14.1180    0.5200 S   0  0  0  0  0  0  0  0  0  0  0  0
   44.6830   15.3340    1.6850 C   0  0  0  0  0  0  0  0  0  0  0  0
   45.5910   14.9690    2.6490 C   0  0  0  0  0  0  0  0  0  0  0  0
   46.0140   13.6290    2.4370 C   0  0  0  0  0  0  0  0  0  0  0  0
   45.4390   13.0490    1.3430 C   0  0  0  0  0  0  0  0  0  0  0  0
   43.9670   16.7160    1.5230 C   0  0  0  0  0  0  0  0  0  0  0  0
   44.0370   17.5620    2.4670 O   0  0  0  0  0  0  0  0  0  0  0  0
   43.3800   16.8410    0.4120 O   0  0  0  0  0  0  0  0  0  0  0  0
   46.0220   15.7410    3.6790 O   0  0  0  0  0  0  0  0  0  0  0  0
   47.2680   16.4150    3.4510 C   0  0  0  0  0  0  0  0  0  0  0  0
   47.5720   17.1990    4.7270 C   0  0  0  0  0  0  0  0  0  0  0  0
   46.6960   17.1600    5.6320 O   0  0  0  0  0  0  0  0  0  0  0  0
   48.6730   17.7860    4.7440 O   0  0  0  0  0  0  0  0  0  0  0  0
   47.1170   12.5550    3.2310 S   0  0  0  0  0  0  0  0  0  0  0  0
   46.7620   11.3250    2.0640 C   0  0  0  0  0  0  0  0  0  0  0  0
   45.8400   11.7110    1.0930 C   0  0  0  0  0  0  0  0  0  0  0  0
   47.3100   10.0270    2.0140 C   0  0  0  0  0  0  0  0  0  0  0  0
   46.9340    9.1100    1.0050 C   0  0  0  0  0  0  0  0  0  0  0  0
   46.0130    9.5230    0.0360 C   0  0  0  0  0  0  0  0  0  0  0  0
   45.4590   10.8140    0.0650 C   0  0  0  0  0  0  0  0  0  0  0  0
   47.5160    7.8510    1.0300 N   0  0  0  0  0  0  0  0  0  0  0  0
   48.5720    7.4510    1.9440 C   0  0  0  0  0  0  0  0  0  0  0  0
   47.9410    6.9520    3.2650 C   0  0  0  0  0  0  0  0  0  0  0  0
   49.0190    6.4840    4.2370 C   0  0  0  0  0  0  0  0  0  0  0  0
   49.8400    5.4300    3.5400 N   0  0  0  0  0  0  0  0  0  0  0  0
   50.5370    5.9320    2.2970 C   0  0  0  0  0  0  0  0  0  0  0  0
   49.4680    6.3810    1.3030 C   0  0  0  0  0  0  0  0  0  0  0  0
   50.6720    4.2940    4.5480 S   0  0  0  0  0  0  0  0  0  0  0  0
   49.6580    2.8300    4.3100 C   0  0  0  0  0  0  0  0  0  0  0  0
   49.3150    2.6740    2.8490 C   0  0  0  0  0  0  0  0  0  0  0  0
   48.0250    2.9940    2.3820 C   0  0  0  0  0  0  0  0  0  0  0  0
   47.6950    2.8550    1.0240 C   0  0  0  0  0  0  0  0  0  0  0  0
   48.6570    2.3980    0.1190 C   0  0  0  0  0  0  0  0  0  0  0  0
   49.9480    2.0760    0.5670 C   0  0  0  0  0  0  0  0  0  0  0  0
   50.2760    2.2120    1.9250 C   0  0  0  0  0  0  0  0  0  0  0  0
   50.5680    4.7260    5.9280 O   0  0  0  0  0  0  0  0  0  0  0  0
   51.9810    4.0690    3.9540 O   0  0  0  0  0  0  0  0  0  0  0  0
  2  1  1  0
  5  1  1  0
  3  2  2  0
  6  2  1  0
  4  3  1  0
  9  3  1  0
  5  4  2  0
 14  4  1  0
 16  5  1  0
  7  6  1  0
  8  6  2  0
 10  9  1  0
 11 10  1  0
 12 11  1  0
 13 11  2  0
 15 14  1  0
 16 15  2  0
 17 15  1  0
 20 16  1  0
 18 17  2  0
 19 18  1  0
 21 18  1  0
 20 19  2  0
 22 21  1  0
 23 22  1  0
 27 22  1  0
 24 23  1  0
 25 24  1  0
 26 25  1  0
 28 25  1  0
 27 26  1  0
 29 28  1  0
 36 28  2  0
 37 28  2  0
 30 29  1  0
 31 30  2  0
 35 30  1  0
 32 31  1  0
 33 32  2  0
 34 33  1  0
 35 34  2  0
A    1
S1
A    2
C2
A    3
C3
A    4
C4
A    5
C5
A    6
C6
A    7
O7
A    8
O8
A    9
O9
A   10
C10
A   11
C11
A   12
O14
A   13
O15
A   14
S18
A   15
C19
A   16
C20
A   17
C21
A   18
C22
A   19
C23
A   20
C24
A   21
N28
A   22
C29
A   23
C30
A   24
C31
A   25
N32
A   26
C33
A   27
C34
A   28
S44
A   29
C45
A   30
C46
A   31
C49
A   32
C50
A   33
C51
A   34
C52
A   35
C53
A   36
O59
A   37
O60
M  END
>  <Id>  (42) 
2B07_598_A_301

>  <ChainId>  (42) 
A

>  <AsymId>  (42) 
B

>  <SeqNum>  (42) 
301

>  <Name>  (42) 
6-{[1-(BENZYLSULFONYL)PIPERIDIN-4-YL]AMINO}-3-(CARBOXYMETHOXY)THIENO[3,2-B][1]BENZOTHIOPHENE-2-CARBOXYLIC ACID

>  <SystematicName>  (42) 
3-(carboxymethyloxy)-6-[[1-(phenylmethylsulfonyl)piperidin-4-yl]amino]thieno[4,5-b][1]benzothiole-2-carboxylic acid

>  <Synonyms>  (42) 


>  <Type>  (42) 
NON-POLYMER

>  <Formula>  (42) 
C25 H24 N2 O7 S3

>  <ObservedFormula>  (42) 
S3 C25 N2 O7

>  <MolecularWeight>  (42) 
560.662

>  <ModifiedDate>  (42) 
2011-06-04

>  <Parent>  (42) 


>  <OneLetterCode>  (42) 


>  <SubcomponentList>  (42) 


>  <AmbiguousFlag>  (42) 
N

>  <InsertionCode>  (42) 


>  <InstanceId>  (42) 
2B07_598_A_301

>  <ChemCompId>  (42) 
598

>  <PdbId>  (42) 
2B07

>  <ResidueNumber>  (42) 
301

>  <InChI>  (42) 
InChI=1S/C25H24N2O7S3/c28-20(29)13-34-21-23-22(36-24(21)25(30)31)18-7-6-17(12-19(18)35-23)26-16-8-10-27(11-9-16)37(32,33)14-15-4-2-1-3-5-15/h1-7,12,16,26H,8-11,13-14H2,(H,28,29)(H,30,31)

>  <InChIKey>  (42) 
UEELPALQXUYKFT-UHFFFAOYSA-N

>  <SMILES>  (42) 
c1ccc(cc1)CS(=O)(=O)N2CCC(CC2)Nc3ccc4c(c3)sc5c4sc(c5OCC(=O)O)C(=O)O

>  <MissingHeavyAtoms>  (42) 
0

>  <Model>  (42) 
1

>  <AltIds>  (42) 


>  <pKI>  (42) 
6.43

>  <ChemblID>  (42) 
-

>  <standardized_canonical_smiles>  (42) 
O=C(O)COc1c(C(=O)O)sc2c1sc1cc(NC3CCN(S(=O)(=O)Cc4ccccc4)CC3)ccc12

$$$$
2AZR_982_A_301
     RDKit          3D

 17 18  0  0  0  0  0  0  0  0999 V2000
   46.4550   12.2720    2.9360 C   0  0  0  0  0  0  0  0  0  0  0  0
   46.4850   11.0190    2.3170 C   0  0  0  0  0  0  0  0  0  0  0  0
   45.8240   10.8500    1.1090 C   0  0  0  0  0  0  0  0  0  0  0  0
   45.1360   11.8170    0.4610 N   0  0  0  0  0  0  0  0  0  0  0  0
   45.1370   13.0150    1.0940 C   0  0  0  0  0  0  0  0  0  0  0  0
   45.7540   13.3290    2.3110 C   0  0  0  0  0  0  0  0  0  0  0  0
   44.3260   14.3420    0.4060 S   0  0  0  0  0  0  0  0  0  0  0  0
   44.7650   15.3620    1.7120 C   0  0  0  0  0  0  0  0  0  0  0  0
   45.5370   14.7090    2.6630 C   0  0  0  0  0  0  0  0  0  0  0  0
   44.3010   16.8600    1.7050 C   0  0  0  0  0  0  0  0  0  0  0  0
   43.8000   17.2620    0.6140 O   0  0  0  0  0  0  0  0  0  0  0  0
   46.0160   15.2980    3.8050 O   0  0  0  0  0  0  0  0  0  0  0  0
   47.2510   16.0130    3.6410 C   0  0  0  0  0  0  0  0  0  0  0  0
   47.4750   16.9630    4.8310 C   0  0  0  0  0  0  0  0  0  0  0  0
   48.5250   17.6360    4.7770 O   0  0  0  0  0  0  0  0  0  0  0  0
   44.4540   17.5450    2.7620 O   0  0  0  0  0  0  0  0  0  0  0  0
   46.6160   16.9760    5.7460 O   0  0  0  0  0  0  0  0  0  0  0  0
  2  1  2  0
  6  1  1  0
  3  2  1  0
  4  3  2  0
  5  4  1  0
  6  5  2  0
  7  5  1  0
  9  6  1  0
  8  7  1  0
  9  8  2  0
 10  8  1  0
 12  9  1  0
 11 10  2  0
 16 10  1  0
 13 12  1  0
 14 13  1  0
 15 14  2  0
 17 14  1  0
A    1
C1
A    2
C2
A    3
C3
A    4
N1
A    5
C5
A    6
C6
A    7
S10
A    8
C11
A    9
C12
A   10
C13
A   11
O14
A   12
O15
A   13
C16
A   14
C17
A   15
O20
A   16
O21
A   17
O22
M  END
>  <Id>  (43) 
2AZR_982_A_301

>  <ChainId>  (43) 
A

>  <AsymId>  (43) 
B

>  <SeqNum>  (43) 
301

>  <Name>  (43) 
3-(CARBOXYMETHOXY)THIENO[2,3-B]PYRIDINE-2-CARBOXYLIC ACID

>  <SystematicName>  (43) 
3-(carboxymethyloxy)thieno[5,4-b]pyridine-2-carboxylic acid

>  <Synonyms>  (43) 


>  <Type>  (43) 
NON-POLYMER

>  <Formula>  (43) 
C10 H7 N O5 S

>  <ObservedFormula>  (43) 
C10 S N O5

>  <MolecularWeight>  (43) 
253.231

>  <ModifiedDate>  (43) 
2011-06-04

>  <Parent>  (43) 


>  <OneLetterCode>  (43) 


>  <SubcomponentList>  (43) 


>  <AmbiguousFlag>  (43) 
N

>  <InsertionCode>  (43) 


>  <InstanceId>  (43) 
2AZR_982_A_301

>  <ChemCompId>  (43) 
982

>  <PdbId>  (43) 
2AZR

>  <ResidueNumber>  (43) 
301

>  <InChI>  (43) 
InChI=1S/C10H7NO5S/c12-6(13)4-16-7-5-2-1-3-11-9(5)17-8(7)10(14)15/h1-3H,4H2,(H,12,13)(H,14,15)

>  <InChIKey>  (43) 
JGZSWLHKOMFYHS-UHFFFAOYSA-N

>  <SMILES>  (43) 
c1cc2c(c(sc2nc1)C(=O)O)OCC(=O)O

>  <MissingHeavyAtoms>  (43) 
0

>  <Model>  (43) 
1

>  <AltIds>  (43) 


>  <pKI>  (43) 
3.64

>  <ChemblID>  (43) 
-

>  <standardized_canonical_smiles>  (43) 
O=C(O)COc1c(C(=O)O)sc2ncccc12

$$$$
5K9V_GOL_A_410
     RDKit          3D

  6  5  0  0  0  0  0  0  0  0999 V2000
  -26.8040    4.6390  -13.1540 C   0  0  0  0  0  0  0  0  0  0  0  0
  -26.8920    5.8150  -12.3800 O   0  0  0  0  0  0  0  0  0  0  0  0
  -28.1470    3.9240  -13.1710 C   0  0  0  0  0  0  0  0  0  0  0  0
  -29.1340    4.7750  -12.6410 O   0  0  0  0  0  0  0  0  0  0  0  0
  -28.4900    3.5500  -14.6090 C   0  0  0  0  0  0  0  0  0  0  0  0
  -27.4350    2.7820  -15.1500 O   0  0  0  0  0  0  0  0  0  0  0  0
  2  1  1  0
  3  1  1  0
  4  3  1  0
  5  3  1  0
  6  5  1  0
A    1
C1
A    2
O1
A    3
C2
A    4
O2
A    5
C3
A    6
O3
M  END
>  <Id>  (44) 
5K9V_GOL_A_410

>  <ChainId>  (44) 
A

>  <AsymId>  (44) 
K

>  <SeqNum>  (44) 
410

>  <Name>  (44) 
GLYCEROL

>  <SystematicName>  (44) 
propane-1,2,3-triol

>  <Synonyms>  (44) 
GLYCERIN; PROPANE-1,2,3-TRIOL

>  <Type>  (44) 
NON-POLYMER

>  <Formula>  (44) 
C3 H8 O3

>  <ObservedFormula>  (44) 
C3 O3

>  <MolecularWeight>  (44) 
92.094

>  <ModifiedDate>  (44) 
2011-06-04

>  <Parent>  (44) 


>  <OneLetterCode>  (44) 


>  <SubcomponentList>  (44) 


>  <AmbiguousFlag>  (44) 
N

>  <InsertionCode>  (44) 


>  <InstanceId>  (44) 
5K9V_GOL_A_410

>  <ChemCompId>  (44) 
GOL

>  <PdbId>  (44) 
5K9V

>  <ResidueNumber>  (44) 
410

>  <InChI>  (44) 
InChI=1S/C3H8O3/c4-1-3(6)2-5/h3-6H,1-2H2

>  <InChIKey>  (44) 
PEDCQBHIVMGVHV-UHFFFAOYSA-N

>  <SMILES>  (44) 
C(C(CO)O)O

>  <MissingHeavyAtoms>  (44) 
0

>  <Model>  (44) 
1

>  <AltIds>  (44) 


>  <pKI>  (44) 
7.89

>  <ChemblID>  (44) 
-

>  <standardized_canonical_smiles>  (44) 
O=C(O)COc1c(C(=O)O)sc(-c2cccc(N(C(=O)c3ccccc3)C3CCCCC3)c2)c1Br

$$$$
2ZN7_410_A_300
     RDKit          3D

 35 38  0  0  0  0  0  0  0  0999 V2000
   48.5590   12.4160   -3.3400 C   0  0  0  0  0  0  0  0  0  0  0  0
   47.9770   11.1460   -3.3450 C   0  0  0  0  0  0  0  0  0  0  0  0
   48.3050   10.2140   -2.3520 C   0  0  0  0  0  0  0  0  0  0  0  0
   49.2250   10.5420   -1.3410 C   0  0  0  0  0  0  0  0  0  0  0  0
   49.8070   11.8160   -1.3410 C   0  0  0  0  0  0  0  0  0  0  0  0
   49.4750   12.7430   -2.3360 C   0  0  0  0  0  0  0  0  0  0  0  0
   49.5540    9.5190   -0.2990 C   0  0  0  0  0  0  0  0  0  0  0  0
   50.6980    9.0630   -0.2960 O   0  0  0  0  0  0  0  0  0  0  0  0
   48.5540    9.1150    0.6020 N   0  0  0  0  0  0  0  0  0  0  0  0
   47.2420    9.6990    0.5700 C   0  0  0  0  0  0  0  0  0  0  0  0
   46.1240    9.0360    0.0560 C   0  0  0  0  0  0  0  0  0  0  0  0
   44.8780    9.6670    0.0570 C   0  0  0  0  0  0  0  0  0  0  0  0
   44.7280   10.9630    0.5670 C   0  0  0  0  0  0  0  0  0  0  0  0
   45.8380   11.6510    1.0870 C   0  0  0  0  0  0  0  0  0  0  0  0
   47.0870   11.0050    1.0800 C   0  0  0  0  0  0  0  0  0  0  0  0
   45.7120   13.0190    1.6060 C   0  0  0  0  0  0  0  0  0  0  0  0
   46.2970   13.6400    2.6970 C   0  0  0  0  0  0  0  0  0  0  0  0
   45.9190   15.0020    2.8620 C   0  0  0  0  0  0  0  0  0  0  0  0
   45.0220   15.3700    1.8740 C   0  0  0  0  0  0  0  0  0  0  0  0
   44.6830   14.1060    0.7680 S   0  0  0  0  0  0  0  0  0  0  0  0
   44.3410   16.7580    1.6490 C   0  0  0  0  0  0  0  0  0  0  0  0
   43.8310   16.8970    0.4990 O   0  0  0  0  0  0  0  0  0  0  0  0
   44.3330   17.5910    2.5970 O   0  0  0  0  0  0  0  0  0  0  0  0
   46.3510   15.8080    3.8840 O   0  0  0  0  0  0  0  0  0  0  0  0
   47.5490   16.5590    3.6400 C   0  0  0  0  0  0  0  0  0  0  0  0
   47.8720   17.2790    4.9650 C   0  0  0  0  0  0  0  0  0  0  0  0
   48.9770   17.8700    5.0200 O   0  0  0  0  0  0  0  0  0  0  0  0
   47.0020   17.1990    5.8780 O   0  0  0  0  0  0  0  0  0  0  0  0
   47.5090   12.8180    3.9060 Br  0  0  0  0  0  0  0  0  0  0  0  0
   48.8730    8.0870    1.6430 C   0  0  0  0  0  0  0  0  0  0  0  0
   48.1310    6.7610    1.4280 C   0  0  0  0  0  0  0  0  0  0  0  0
   48.6100    5.7150    2.4250 C   0  0  0  0  0  0  0  0  0  0  0  0
   48.3070    6.1910    3.8420 C   0  0  0  0  0  0  0  0  0  0  0  0
   49.0250    7.5090    4.1340 C   0  0  0  0  0  0  0  0  0  0  0  0
   48.7350    8.5940    3.0870 C   0  0  0  0  0  0  0  0  0  0  0  0
  2  1  2  0
  6  1  1  0
  3  2  1  0
  4  3  2  0
  5  4  1  0
  7  4  1  0
  6  5  2  0
  8  7  2  0
  9  7  1  0
 10  9  1  0
 30  9  1  0
 11 10  2  0
 15 10  1  0
 12 11  1  0
 13 12  2  0
 14 13  1  0
 15 14  2  0
 16 14  1  0
 17 16  2  0
 20 16  1  0
 18 17  1  0
 29 17  1  0
 19 18  2  0
 24 18  1  0
 20 19  1  0
 21 19  1  0
 22 21  2  0
 23 21  1  0
 25 24  1  0
 26 25  1  0
 27 26  2  0
 28 26  1  0
 31 30  1  0
 35 30  1  0
 32 31  1  0
 33 32  1  0
 34 33  1  0
 35 34  1  0
A    1
C1
A    2
C2
A    3
C3
A    4
C4
A    5
C5
A    6
C6
A    7
C7
A    8
O1
A    9
N1
A   10
C8
A   11
C9
A   12
C10
A   13
C11
A   14
C12
A   15
C13
A   16
C14
A   17
C15
A   18
C16
A   19
C17
A   20
S1
A   21
C18
A   22
O2
A   23
O3
A   24
O4
A   25
C19
A   26
C20
A   27
O5
A   28
O6
A   29
BR1
A   30
C21
A   31
C22
A   32
C23
A   33
C24
A   34
C25
A   35
C26
M  END
>  <Id>  (45) 
2ZN7_410_A_300

>  <ChainId>  (45) 
A

>  <AsymId>  (45) 
B

>  <SeqNum>  (45) 
300

>  <Name>  (45) 
4-bromo-3-(carboxymethoxy)-5-{3-[cyclohexyl(phenylcarbonyl)amino]phenyl}thiophene-2-carboxylic acid

>  <SystematicName>  (45) 
4-bromo-3-(carboxymethyloxy)-5-[3-(cyclohexyl-(phenylcarbonyl)amino)phenyl]thiophene-2-carboxylic acid

>  <Synonyms>  (45) 


>  <Type>  (45) 
NON-POLYMER

>  <Formula>  (45) 
C26 H24 Br N O6 S

>  <ObservedFormula>  (45) 
Br C26 S N O6

>  <MolecularWeight>  (45) 
558.441

>  <ModifiedDate>  (45) 
2011-06-04

>  <Parent>  (45) 


>  <OneLetterCode>  (45) 


>  <SubcomponentList>  (45) 


>  <AmbiguousFlag>  (45) 
N

>  <InsertionCode>  (45) 


>  <InstanceId>  (45) 
2ZN7_410_A_300

>  <ChemCompId>  (45) 
410

>  <PdbId>  (45) 
2ZN7

>  <ResidueNumber>  (45) 
300

>  <InChI>  (45) 
InChI=1S/C26H24BrNO6S/c27-21-22(34-15-20(29)30)24(26(32)33)35-23(21)17-10-7-13-19(14-17)28(18-11-5-2-6-12-18)25(31)16-8-3-1-4-9-16/h1,3-4,7-10,13-14,18H,2,5-6,11-12,15H2,(H,29,30)(H,32,33)

>  <InChIKey>  (45) 
NXCMIBOFUBPJDM-UHFFFAOYSA-N

>  <SMILES>  (45) 
c1ccc(cc1)C(=O)N(c2cccc(c2)c3c(c(c(s3)C(=O)O)OCC(=O)O)Br)C4CCCCC4

>  <MissingHeavyAtoms>  (45) 
0

>  <Model>  (45) 
1

>  <AltIds>  (45) 


>  <pKI>  (45) 
7.89

>  <ChemblID>  (45) 
-

>  <standardized_canonical_smiles>  (45) 
O=C(O)COc1c(C(=O)O)sc(-c2cccc(N(C(=O)c3ccccc3)C3CCCCC3)c2)c1Br

$$$$
5KAC_GOL_A_410
     RDKit          3D

  6  5  0  0  0  0  0  0  0  0999 V2000
   34.7870   12.3860    7.1590 C   0  0  0  0  0  0  0  0  0  0  0  0
   36.0060   11.6610    7.1660 O   0  0  0  0  0  0  0  0  0  0  0  0
   33.9710   11.9430    5.9380 C   0  0  0  0  0  0  0  0  0  0  0  0
   34.2250   10.5760    5.7100 O   0  0  0  0  0  0  0  0  0  0  0  0
   32.4970   12.1360    6.2280 C   0  0  0  0  0  0  0  0  0  0  0  0
   32.0180   12.9940    5.2240 O   0  0  0  0  0  0  0  0  0  0  0  0
  2  1  1  0
  3  1  1  0
  4  3  1  0
  5  3  1  0
  6  5  1  0
A    1
C1
A    2
O1
A    3
C2
A    4
O2
A    5
C3
A    6
O3
M  END
>  <Id>  (46) 
5KAC_GOL_A_410

>  <ChainId>  (46) 
A

>  <AsymId>  (46) 
K

>  <SeqNum>  (46) 
410

>  <Name>  (46) 
GLYCEROL

>  <SystematicName>  (46) 
propane-1,2,3-triol

>  <Synonyms>  (46) 
GLYCERIN; PROPANE-1,2,3-TRIOL

>  <Type>  (46) 
NON-POLYMER

>  <Formula>  (46) 
C3 H8 O3

>  <ObservedFormula>  (46) 
C3 O3

>  <MolecularWeight>  (46) 
92.094

>  <ModifiedDate>  (46) 
2011-06-04

>  <Parent>  (46) 


>  <OneLetterCode>  (46) 


>  <SubcomponentList>  (46) 


>  <AmbiguousFlag>  (46) 
N

>  <InsertionCode>  (46) 


>  <InstanceId>  (46) 
5KAC_GOL_A_410

>  <ChemCompId>  (46) 
GOL

>  <PdbId>  (46) 
5KAC

>  <ResidueNumber>  (46) 
410

>  <InChI>  (46) 
InChI=1S/C3H8O3/c4-1-3(6)2-5/h3-6H,1-2H2

>  <InChIKey>  (46) 
PEDCQBHIVMGVHV-UHFFFAOYSA-N

>  <SMILES>  (46) 
C(C(CO)O)O

>  <MissingHeavyAtoms>  (46) 
0

>  <Model>  (46) 
1

>  <AltIds>  (46) 


>  <pKI>  (46) 
7.89

>  <ChemblID>  (46) 
-

>  <standardized_canonical_smiles>  (46) 
O=C(O)COc1c(C(=O)O)sc(-c2cccc(N(C(=O)c3ccccc3)C3CCCCC3)c2)c1Br

$$$$
3EB1_LZQ_A_322
     RDKit          3D

 29 31  0  0  0  0  0  0  0  0999 V2000
   45.7950   12.1820    2.5370 C   0  0  0  0  0  0  0  0  0  0  0  0
   45.9480   14.6770    2.4470 C   0  0  0  0  0  0  0  0  0  0  0  0
   47.5190   15.6020    4.2050 C   0  0  0  0  0  0  0  0  0  0  0  0
   48.3580   16.5460    4.6460 C   0  0  0  0  0  0  0  0  0  0  0  0
   49.3320   10.5080   -1.7620 C   0  0  0  0  0  0  0  0  0  0  0  0
   45.6650   10.4560   -3.5510 C   0  0  0  0  0  0  0  0  0  0  0  0
   47.0600   11.8680   -1.7400 N   0  0  0  0  0  0  0  0  0  0  0  0
   47.9190   17.9470    4.6180 O   0  0  0  0  0  0  0  0  0  0  0  0
   45.9150   10.8880    1.9000 C   0  0  0  0  0  0  0  0  0  0  0  0
   50.0300   10.3850   -0.4630 C   0  0  0  0  0  0  0  0  0  0  0  0
   45.3730   10.4520   -5.0080 C   0  0  0  0  0  0  0  0  0  0  0  0
   44.7160   14.9850    2.8530 O   0  0  0  0  0  0  0  0  0  0  0  0
   47.2810   14.6120    4.8970 O   0  0  0  0  0  0  0  0  0  0  0  0
   49.4750   16.2240    5.0680 O   0  0  0  0  0  0  0  0  0  0  0  0
   46.3250   10.7710    0.5060 C   0  0  0  0  0  0  0  0  0  0  0  0
   50.7470    9.1410   -0.1130 C   0  0  0  0  0  0  0  0  0  0  0  0
   45.0670    9.1890   -5.7110 C   0  0  0  0  0  0  0  0  0  0  0  0
   46.6270   11.9700   -0.2760 C   0  0  0  0  0  0  0  0  0  0  0  0
   50.7810    8.0080   -1.0460 C   0  0  0  0  0  0  0  0  0  0  0  0
   45.0480    7.9240   -4.9730 C   0  0  0  0  0  0  0  0  0  0  0  0
   46.5010   13.2990    0.3830 C   0  0  0  0  0  0  0  0  0  0  0  0
   50.0990    8.1100   -2.3370 C   0  0  0  0  0  0  0  0  0  0  0  0
   45.3350    7.9210   -3.5350 C   0  0  0  0  0  0  0  0  0  0  0  0
   46.0780   13.4110    1.8110 C   0  0  0  0  0  0  0  0  0  0  0  0
   49.3750    9.3550   -2.6990 C   0  0  0  0  0  0  0  0  0  0  0  0
   45.6420    9.1770   -2.8200 C   0  0  0  0  0  0  0  0  0  0  0  0
   46.8660   15.8140    2.7950 C   0  0  0  0  0  0  0  0  0  0  0  0
   48.5580   11.8510   -2.1390 C   0  0  0  0  0  0  0  0  0  0  0  0
   45.9870   11.8400   -2.8210 C   0  0  0  0  0  0  0  0  0  0  0  0
  9  1  2  0
 24  1  1  0
 12  2  2  0
 24  2  1  0
 27  2  1  0
  4  3  1  0
 13  3  2  0
 27  3  1  0
  8  4  2  0
 14  4  1  0
 10  5  2  0
 25  5  1  0
 28  5  1  0
 11  6  2  0
 26  6  1  0
 29  6  1  0
 18  7  1  0
 28  7  1  0
 29  7  1  0
 15  9  1  0
 16 10  1  0
 17 11  1  0
 18 15  2  0
 19 16  2  0
 20 17  2  0
 21 18  1  0
 22 19  1  0
 23 20  1  0
 24 21  2  0
 25 22  2  0
 26 23  2  0
A    1
C01
A    2
C07
A    3
C09
A    4
C10
A    5
C13
A    6
C19
A    7
N01
A    8
O01
A    9
C02
A   10
C14
A   11
C20
A   12
O02
A   13
O10
A   14
O11
A   15
C03
A   16
C15
A   17
C21
A   18
C04
A   19
C16
A   20
C22
A   21
C05
A   22
C17
A   23
C23
A   24
C06
A   25
C18
A   26
C24
A   27
C08
A   28
C11
A   29
C12
M  END
>  <Id>  (47) 
3EB1_LZQ_A_322

>  <ChainId>  (47) 
A

>  <AsymId>  (47) 
B

>  <SeqNum>  (47) 
322

>  <Name>  (47) 
4-[3-(dibenzylamino)phenyl]-2,4-dioxobutanoic acid

>  <SystematicName>  (47) 
4-[3-(bis(phenylmethyl)amino)phenyl]-2,4-dioxo-butanoic acid

>  <Synonyms>  (47) 


>  <Type>  (47) 
NON-POLYMER

>  <Formula>  (47) 
C24 H21 N O4

>  <ObservedFormula>  (47) 
C24 N O4

>  <MolecularWeight>  (47) 
387.428

>  <ModifiedDate>  (47) 
2011-06-04

>  <Parent>  (47) 


>  <OneLetterCode>  (47) 


>  <SubcomponentList>  (47) 


>  <AmbiguousFlag>  (47) 
N

>  <InsertionCode>  (47) 


>  <InstanceId>  (47) 
3EB1_LZQ_A_322

>  <ChemCompId>  (47) 
LZQ

>  <PdbId>  (47) 
3EB1

>  <ResidueNumber>  (47) 
322

>  <InChI>  (47) 
InChI=1S/C24H21NO4/c26-22(15-23(27)24(28)29)20-12-7-13-21(14-20)25(16-18-8-3-1-4-9-18)17-19-10-5-2-6-11-19/h1-14H,15-17H2,(H,28,29)

>  <InChIKey>  (47) 
RMWVENXKUQXLPW-UHFFFAOYSA-N

>  <SMILES>  (47) 
c1ccc(cc1)CN(Cc2ccccc2)c3cccc(c3)C(=O)CC(=O)C(=O)O

>  <MissingHeavyAtoms>  (47) 
0

>  <Model>  (47) 
1

>  <AltIds>  (47) 


>  <pKI>  (47) 
4.8

>  <ChemblID>  (47) 
-

>  <standardized_canonical_smiles>  (47) 
O=C(O)C(=O)CC(=O)c1cccc(N(Cc2ccccc2)Cc2ccccc2)c1

$$$$
1BZC_TPI_A_902
     RDKit          3D

 29 30  0  0  0  0  0  0  0  0999 V2000
  -20.5280   58.4430   12.0690 P   0  0  0  0  0  0  0  0  0  0  0  0
  -20.4410   56.9790   11.4600 O   0  0  0  0  0  0  0  0  0  0  0  0
  -21.3340   59.3230   11.1980 O   0  0  0  0  0  0  0  0  0  0  0  0
  -19.0690   59.0410   12.2460 O   0  0  0  0  0  0  0  0  0  0  0  0
  -21.3330   58.3720   13.6690 C   0  0  0  0  0  0  0  0  0  0  0  0
  -21.4420   59.6270   14.1640 F   0  0  0  0  0  0  0  0  0  0  0  0
  -22.5530   57.8710   13.4660 F   0  0  0  0  0  0  0  0  0  0  0  0
  -20.8740   56.1310   14.8470 C   0  0  0  0  0  0  0  0  0  0  0  0
  -20.6170   57.5140   14.7150 C   0  0  0  0  0  0  0  0  0  0  0  0
  -19.7250   58.1450   15.6010 C   0  0  0  0  0  0  0  0  0  0  0  0
  -19.1000   57.4250   16.6180 C   0  0  0  0  0  0  0  0  0  0  0  0
  -18.7540   55.3570   17.8170 C   0  0  0  0  0  0  0  0  0  0  0  0
  -18.9980   53.9910   18.0000 C   0  0  0  0  0  0  0  0  0  0  0  0
  -19.8620   53.3130   17.1080 C   0  0  0  0  0  0  0  0  0  0  0  0
  -20.4890   54.0160   16.0500 C   0  0  0  0  0  0  0  0  0  0  0  0
  -20.2440   55.3950   15.8790 C   0  0  0  0  0  0  0  0  0  0  0  0
  -19.3650   56.0590   16.7660 C   0  0  0  0  0  0  0  0  0  0  0  0
  -18.3240   53.2680   19.1560 C   0  0  0  0  0  0  0  0  0  0  0  0
  -17.6080   53.9250   19.9000 O   0  0  0  0  0  0  0  0  0  0  0  0
  -18.5390   51.8320   19.3520 N   0  0  0  0  0  0  0  0  0  0  0  0
  -17.8240   51.2530   20.5000 C   0  0  0  0  0  0  0  0  0  0  0  0
  -16.3230   51.4180   20.5180 C   0  0  0  0  0  0  0  0  0  0  0  0
  -15.7240   52.0710   21.6630 N   0  0  0  0  0  0  0  0  0  0  0  0
  -15.6210   50.9870   19.6170 O   0  0  0  0  0  0  0  0  0  0  0  0
  -18.1420   49.7480   20.6410 C   0  0  0  0  0  0  0  0  0  0  0  0
  -19.6280   49.5050   20.9440 C   0  0  0  0  0  0  0  0  0  0  0  0
  -19.8660   48.0310   21.0820 C   0  0  0  0  0  0  0  0  0  0  0  0
  -21.1390   47.6770   21.2330 O   0  0  0  0  0  0  0  0  0  0  0  0
  -18.9550   47.2040   21.0680 O   0  0  0  0  0  0  0  0  0  0  0  0
  2  1  1  0
  3  1  1  0
  4  1  2  0
  5  1  1  0
  6  5  1  0
  7  5  1  0
  9  5  1  0
  9  8  2  0
 16  8  1  0
 10  9  1  0
 11 10  2  0
 17 11  1  0
 13 12  1  0
 17 12  2  0
 14 13  2  0
 18 13  1  0
 15 14  1  0
 16 15  2  0
 17 16  1  0
 19 18  2  0
 20 18  1  0
 21 20  1  0
 22 21  1  0
 25 21  1  0
 23 22  1  0
 24 22  2  0
 26 25  1  0
 27 26  1  0
 28 27  2  0
 29 27  1  0
A    1
P
A    2
O1
A    3
O2
A    4
O3
A    5
C1
A    6
F1
A    7
F2
A    8
C2
A    9
C3
A   10
C4
A   11
C5
A   12
C6
A   13
C7
A   14
C8
A   15
C9
A   16
C10
A   17
C11
A   18
C12
A   19
O4
A   20
N1
A   21
C13
A   22
C14
A   23
N2
A   24
O5
A   25
C15
A   26
C16
A   27
C17
A   28
O6
A   29
O7
M  END
>  <Id>  (48) 
1BZC_TPI_A_902

>  <ChainId>  (48) 
A

>  <AsymId>  (48) 
B

>  <SeqNum>  (48) 
902

>  <Name>  (48) 
4-CARBAMOYL-4-{[6-(DIFLUORO-PHOSPHONO-METHYL)-NAPHTHALENE-2-CARBONYL]-AMINO}-BUTYRIC ACID

>  <SystematicName>  (48) 
(4S)-5-amino-4-[[6-(difluoro-phosphono-methyl)naphthalen-2-yl]carbonylamino]-5-oxo-pentanoic acid

>  <Synonyms>  (48) 


>  <Type>  (48) 
NON-POLYMER

>  <Formula>  (48) 
C17 H17 F2 N2 O7 P

>  <ObservedFormula>  (48) 
P C17 F2 N2 O7

>  <MolecularWeight>  (48) 
430.297

>  <ModifiedDate>  (48) 
2011-06-04

>  <Parent>  (48) 


>  <OneLetterCode>  (48) 


>  <SubcomponentList>  (48) 


>  <AmbiguousFlag>  (48) 
N

>  <InsertionCode>  (48) 


>  <InstanceId>  (48) 
1BZC_TPI_A_902

>  <ChemCompId>  (48) 
TPI

>  <PdbId>  (48) 
1BZC

>  <ResidueNumber>  (48) 
902

>  <InChI>  (48) 
InChI=1S/C17H17F2N2O7P/c18-17(19,29(26,27)28)12-4-3-9-7-11(2-1-10(9)8-12)16(25)21-13(15(20)24)5-6-14(22)23/h1-4,7-8,13H,5-6H2,(H2,20,24)(H,21,25)(H,22,23)(H2,26,27,28)/t13-/m0/s1

>  <InChIKey>  (48) 
OWWCIKSGGKYNHT-ZDUSSCGKSA-N

>  <SMILES>  (48) 
c1cc(cc2c1cc(cc2)C(F)(F)P(=O)(O)O)C(=O)N[C@@H](CCC(=O)O)C(=O)N

>  <MissingHeavyAtoms>  (48) 
0

>  <Model>  (48) 
1

>  <AltIds>  (48) 


>  <pKI>  (48) 
4.92

>  <ChemblID>  (48) 
-

>  <standardized_canonical_smiles>  (48) 
NC(=O)[C@H](CCC(=O)O)NC(=O)c1ccc2cc(C(F)(F)P(=O)(O)O)ccc2c1

$$$$
4I8N_1CG_A_401
     RDKit          3D

 34 37  0  0  0  0  0  0  0  0999 V2000
  -13.5560   36.6020   32.2970 C   0  0  0  0  0  0  0  0  0  0  0  0
  -12.3380   37.1380   31.8940 C   0  0  0  0  0  0  0  0  0  0  0  0
  -11.4630   36.3040   31.2130 C   0  0  0  0  0  0  0  0  0  0  0  0
  -12.5550   39.2960   35.2880 C   0  0  0  0  0  0  0  0  0  0  0  0
  -11.1000   42.1990   35.4620 C   0  0  0  0  0  0  0  0  0  0  0  0
   -9.6240   44.0730   35.9080 C   0  0  0  0  0  0  0  0  0  0  0  0
  -10.8360   41.7540   36.7440 C   0  0  0  0  0  0  0  0  0  0  0  0
   -8.0840   44.1720   39.1750 C   0  0  0  0  0  0  0  0  0  0  0  0
  -13.8650   38.5420   36.8970 C   0  0  0  0  0  0  0  0  0  0  0  0
   -6.1200   44.7140   40.2080 O   0  0  0  0  0  0  0  0  0  0  0  0
   -7.1530   45.1170   39.7430 C   0  0  0  0  0  0  0  0  0  0  0  0
   -7.3810   46.3980   39.7350 O   0  0  0  0  0  0  0  0  0  0  0  0
   -8.3910   43.2550   39.8690 O   0  0  0  0  0  0  0  0  0  0  0  0
   -8.5160   44.3610   37.9280 N   0  0  0  0  0  0  0  0  0  0  0  0
   -9.3560   43.6220   37.1760 C   0  0  0  0  0  0  0  0  0  0  0  0
  -10.4870   43.3750   35.0850 C   0  0  0  0  0  0  0  0  0  0  0  0
   -9.9680   42.4510   37.5830 C   0  0  0  0  0  0  0  0  0  0  0  0
  -12.0320   41.5250   34.4630 C   0  0  0  0  0  0  0  0  0  0  0  0
  -11.9150   40.0180   34.1820 C   0  0  0  0  0  0  0  0  0  0  0  0
  -12.8050   39.5500   32.8770 S   0  0  0  0  0  0  0  0  0  0  0  0
  -13.1880   40.6580   32.0120 O   0  0  0  0  0  0  0  0  0  0  0  0
  -14.0570   39.0640   33.4010 O   0  0  0  0  0  0  0  0  0  0  0  0
  -11.9710   38.4240   32.1120 N   0  0  0  0  0  0  0  0  0  0  0  0
  -13.8700   35.2630   32.0290 C   0  0  0  0  0  0  0  0  0  0  0  0
  -12.9850   34.4330   31.3540 C   0  0  0  0  0  0  0  0  0  0  0  0
  -13.2860   33.1430   31.0890 F   0  0  0  0  0  0  0  0  0  0  0  0
  -11.7770   34.9720   30.9480 C   0  0  0  0  0  0  0  0  0  0  0  0
  -11.8630   38.3000   35.8700 O   0  0  0  0  0  0  0  0  0  0  0  0
  -12.7150   37.8430   36.8770 C   0  0  0  0  0  0  0  0  0  0  0  0
  -12.4620   36.8310   37.7590 C   0  0  0  0  0  0  0  0  0  0  0  0
  -13.4290   36.5470   38.6970 C   0  0  0  0  0  0  0  0  0  0  0  0
  -14.5990   37.2550   38.7280 C   0  0  0  0  0  0  0  0  0  0  0  0
  -14.8280   38.2580   37.8220 C   0  0  0  0  0  0  0  0  0  0  0  0
  -13.7520   39.4280   35.8910 N   0  0  0  0  0  0  0  0  0  0  0  0
  2  1  2  0
 24  1  1  0
  3  2  1  0
 23  2  1  0
 27  3  2  0
 19  4  1  0
 28  4  1  0
 34  4  2  0
  7  5  1  0
 16  5  2  0
 18  5  1  0
 15  6  2  0
 16  6  1  0
 17  7  2  0
 11  8  1  0
 13  8  2  0
 14  8  1  0
 29  9  2  0
 33  9  1  0
 34  9  1  0
 11 10  1  0
 12 11  2  0
 15 14  1  0
 17 15  1  0
 19 18  1  0
 20 19  1  0
 21 20  2  0
 22 20  2  0
 23 20  1  0
 25 24  2  0
 26 25  1  0
 27 25  1  0
 29 28  1  0
 30 29  1  0
 31 30  2  0
 32 31  1  0
 33 32  2  0
A    1
C4
A    2
C5
A    3
C6
A    4
C13
A    5
C15
A    6
C17
A    7
C20
A    8
C22
A    9
C28
A   10
O26
A   11
C23
A   12
O25
A   13
O24
A   14
N21
A   15
C18
A   16
C16
A   17
C19
A   18
C14
A   19
C12
A   20
S9
A   21
O10
A   22
O11
A   23
N8
A   24
C3
A   25
C2
A   26
F7
A   27
C1
A   28
O30
A   29
C29
A   30
C34
A   31
C33
A   32
C32
A   33
C31
A   34
N27
M  END
>  <Id>  (49) 
4I8N_1CG_A_401

>  <ChainId>  (49) 
A

>  <AsymId>  (49) 
B

>  <SeqNum>  (49) 
401

>  <Name>  (49) 
[(4-{(2S)-2-(1,3-benzoxazol-2-yl)-2-[(4-fluorophenyl)sulfamoyl]ethyl}phenyl)amino](oxo)acetic acid

>  <SystematicName>  (49) 
2-[[4-[(2S)-2-(1,3-benzoxazol-2-yl)-2-[(4-fluorophenyl)sulfamoyl]ethyl]phenyl]amino]-2-oxidanylidene-ethanoic acid

>  <Synonyms>  (49) 


>  <Type>  (49) 
NON-POLYMER

>  <Formula>  (49) 
C23 H18 F N3 O6 S

>  <ObservedFormula>  (49) 
C23 S F N3 O6

>  <MolecularWeight>  (49) 
483.469

>  <ModifiedDate>  (49) 
2012-12-21

>  <Parent>  (49) 


>  <OneLetterCode>  (49) 


>  <SubcomponentList>  (49) 


>  <AmbiguousFlag>  (49) 
N

>  <InsertionCode>  (49) 


>  <InstanceId>  (49) 
4I8N_1CG_A_401

>  <ChemCompId>  (49) 
1CG

>  <PdbId>  (49) 
4I8N

>  <ResidueNumber>  (49) 
401

>  <InChI>  (49) 
InChI=1S/C23H18FN3O6S/c24-15-7-11-17(12-8-15)27-34(31,32)20(22-26-18-3-1-2-4-19(18)33-22)13-14-5-9-16(10-6-14)25-21(28)23(29)30/h1-12,20,27H,13H2,(H,25,28)(H,29,30)/t20-/m0/s1

>  <InChIKey>  (49) 
ZSINWSQBKYZRCH-FQEVSTJZSA-N

>  <SMILES>  (49) 
c1ccc2c(c1)nc(o2)[C@H](Cc3ccc(cc3)NC(=O)C(=O)O)S(=O)(=O)Nc4ccc(cc4)F

>  <MissingHeavyAtoms>  (49) 
0

>  <Model>  (49) 
1

>  <AltIds>  (49) 


>  <pKI>  (49) 
4.46

>  <ChemblID>  (49) 
-

>  <standardized_canonical_smiles>  (49) 
O=C(O)C(=O)Nc1ccc(C[C@@H](c2nc3ccccc3o2)S(=O)(=O)Nc2ccc(F)cc2)cc1

$$$$
1PXH_SNA_A_401
     RDKit          3D

 48 49  0  0  0  0  0  0  0  0999 V2000
   14.7290   14.8620   14.5110 P   0  0  0  0  0  0  0  0  0  0  0  0
   14.6030   13.8680   13.3440 O   0  0  0  0  0  0  0  0  0  0  0  0
   16.1540   14.9230   15.0570 O   0  0  0  0  0  0  0  0  0  0  0  0
   13.7560   14.4630   15.6400 O   0  0  0  0  0  0  0  0  0  0  0  0
   14.3590   16.4800   13.8470 C   0  0  0  0  0  0  0  0  0  0  0  0
   14.4480   17.4640   14.8380 F   0  0  0  0  0  0  0  0  0  0  0  0
   15.3080   16.7110   12.8630 F   0  0  0  0  0  0  0  0  0  0  0  0
   12.9450   16.6840   13.2170 C   0  0  0  0  0  0  0  0  0  0  0  0
   12.7730   16.4770   11.6300 C   0  0  0  0  0  0  0  0  0  0  0  0
   11.4820   16.6870   11.0430 C   0  0  0  0  0  0  0  0  0  0  0  0
   10.3020   17.1000   11.9380 C   0  0  0  0  0  0  0  0  0  0  0  0
   10.4040   17.2960   13.3880 C   0  0  0  0  0  0  0  0  0  0  0  0
   11.7040   17.1010   14.0970 C   0  0  0  0  0  0  0  0  0  0  0  0
    9.1800   17.2910   11.2320 C   0  0  0  0  0  0  0  0  0  0  0  0
    8.4950   18.6790   11.1340 C   0  0  0  0  0  0  0  0  0  0  0  0
    7.2630   18.7410   10.3730 N   0  0  0  0  0  0  0  0  0  0  0  0
    9.3060   19.8910   10.5740 C   0  0  0  0  0  0  0  0  0  0  0  0
    9.6890   19.6750    9.2540 N   0  0  0  0  0  0  0  0  0  0  0  0
   10.3630   20.0960   11.4240 O   0  0  0  0  0  0  0  0  0  0  0  0
   11.1620   19.6760    8.7400 C   0  0  0  0  0  0  0  0  0  0  0  0
   10.9940   19.1390    7.1910 C   0  0  0  0  0  0  0  0  0  0  0  0
   12.2210   18.1990    6.8070 C   0  0  0  0  0  0  0  0  0  0  0  0
   11.8130   17.2350    5.6170 C   0  0  0  0  0  0  0  0  0  0  0  0
   13.0250   16.2960    5.2160 C   0  0  0  0  0  0  0  0  0  0  0  0
    3.8570   19.2820   10.4170 N   0  0  0  0  0  0  0  0  0  0  0  0
    5.1550   19.4810    9.7890 C   0  0  0  0  0  0  0  0  0  0  0  0
    5.4240   19.6840    8.2880 C   0  0  0  0  0  0  0  0  0  0  0  0
    4.3620   19.6930    7.2320 C   0  0  0  0  0  0  0  0  0  0  0  0
    3.9630   20.7930    6.7620 O   0  0  0  0  0  0  0  0  0  0  0  0
    3.9340   18.5560    6.8650 O   0  0  0  0  0  0  0  0  0  0  0  0
    6.2700   19.5190   10.8030 C   0  0  0  0  0  0  0  0  0  0  0  0
    6.1980   20.2130   11.7720 O   0  0  0  0  0  0  0  0  0  0  0  0
    3.2370   18.1200   10.5230 C   0  0  0  0  0  0  0  0  0  0  0  0
    3.7690   17.0630   10.7370 O   0  0  0  0  0  0  0  0  0  0  0  0
   -4.3070   16.9490    8.9060 P   0  0  0  0  0  0  0  0  0  0  0  0
   -4.4830   18.5710    9.0470 O   0  0  0  0  0  0  0  0  0  0  0  0
   -5.4620   16.4340    8.0020 O   0  0  0  0  0  0  0  0  0  0  0  0
   -4.4710   16.3000   10.4620 O   0  0  0  0  0  0  0  0  0  0  0  0
   -2.7980   16.4550    8.0600 C   0  0  0  0  0  0  0  0  0  0  0  0
   -2.7060   15.0530    7.9660 F   0  0  0  0  0  0  0  0  0  0  0  0
   -2.5480   16.9190    6.7430 F   0  0  0  0  0  0  0  0  0  0  0  0
   -0.9780   18.4390    8.8460 C   0  0  0  0  0  0  0  0  0  0  0  0
   -1.5460   16.9630    8.9640 C   0  0  0  0  0  0  0  0  0  0  0  0
   -0.8360   15.9610   10.0320 C   0  0  0  0  0  0  0  0  0  0  0  0
    0.3340   16.4360   10.8790 C   0  0  0  0  0  0  0  0  0  0  0  0
    1.8890   18.3700   11.4330 C   0  0  0  0  0  0  0  0  0  0  0  0
    0.1930   18.9030    9.6980 C   0  0  0  0  0  0  0  0  0  0  0  0
    0.8400   17.9130   10.7000 C   0  0  0  0  0  0  0  0  0  0  0  0
  2  1  2  0
  3  1  1  0
  4  1  1  0
  5  1  1  0
  6  5  1  0
  7  5  1  0
  8  5  1  0
  9  8  2  0
 13  8  1  0
 10  9  1  0
 11 10  2  0
 12 11  1  0
 14 11  1  0
 13 12  2  0
 15 14  1  0
 16 15  1  0
 17 15  1  0
 31 16  1  0
 18 17  1  0
 19 17  2  0
 20 18  1  0
 21 20  1  0
 22 21  1  0
 23 22  1  0
 24 23  1  0
 26 25  1  0
 33 25  1  0
 27 26  1  0
 31 26  1  0
 28 27  1  0
 29 28  2  0
 30 28  1  0
 32 31  2  0
 34 33  2  0
 46 33  1  0
 36 35  2  0
 37 35  1  0
 38 35  1  0
 39 35  1  0
 40 39  1  0
 41 39  1  0
 43 39  1  0
 43 42  2  0
 47 42  1  0
 44 43  1  0
 45 44  2  0
 48 45  1  0
 48 46  1  0
 48 47  2  0
A    1
P1
A    2
O2
A    3
O3
A    4
O4
A    5
C5
A    6
F6
A    7
F7
A    8
C8
A    9
C9
A   10
C10
A   11
C11
A   12
C12
A   13
C13
A   14
C14
A   15
C15
A   16
N16
A   17
C17
A   18
N18
A   19
O19
A   20
C20
A   21
C21
A   22
C22
A   23
C23
A   24
C24
A   25
N25
A   26
C26
A   27
C27
A   28
C28
A   29
O29
A   30
O30
A   31
C31
A   32
O32
A   33
C33
A   34
O34
A   35
P35
A   36
O36
A   37
O37
A   38
O38
A   39
C39
A   40
F40
A   41
F41
A   42
C42
A   43
C43
A   44
C44
A   45
C45
A   46
C46
A   47
C47
A   48
C48
M  END
>  <Id>  (50) 
1PXH_SNA_A_401

>  <ChainId>  (50) 
A

>  <AsymId>  (50) 
D

>  <SeqNum>  (50) 
401

>  <Name>  (50) 
N-{1-[5-(1-CARBAMOYL-2-MERCAPTO-ETHYLCARBAMOYL)-PENTYLCARBAMOYL]-2-[4-(DIFLUORO-PHOSPHONO-METHYL)-PHENYL]-ETHYL}-3-{2-[4-(DIFLUORO-PHOSPHONO-METHYL)-PHENYL]-ACETYLAMINO}-SUCCINAMIC ACID

>  <SystematicName>  (50) 
4-[[(2S)-1-[[6-[[(2S)-1-amino-1-oxo-3-sulfanyl-propan-2-yl]amino]-6-oxo-hexyl]amino]-3-[4-(difluoro-phosphono-methyl)phenyl]-1-oxo-propan-2-yl]amino]-3-[2-[4-(difluoro-phosphono-methyl)phenyl]ethanoylamino]-4-oxo-butanoic acid

>  <Synonyms>  (50) 


>  <Type>  (50) 
NON-POLYMER

>  <Formula>  (50) 
C32 H41 F4 N5 O13 P2 S

>  <ObservedFormula>  (50) 
P2 C28 F4 N3 O11

>  <MolecularWeight>  (50) 
873.7

>  <ModifiedDate>  (50) 
2011-06-04

>  <Parent>  (50) 


>  <OneLetterCode>  (50) 


>  <SubcomponentList>  (50) 


>  <AmbiguousFlag>  (50) 
N

>  <InsertionCode>  (50) 


>  <InstanceId>  (50) 
1PXH_SNA_A_401

>  <ChemCompId>  (50) 
SNA

>  <PdbId>  (50) 
1PXH

>  <ResidueNumber>  (50) 
401

>  <InChI>  (50) 
InChI=1S/C32H41F4N5O13P2S/c33-31(34,55(49,50)51)20-9-5-18(6-10-20)14-22(29(47)38-13-3-1-2-4-25(42)40-24(17-57)28(37)46)41-30(48)23(16-27(44)45)39-26(43)15-19-7-11-21(12-8-19)32(35,36)56(52,53)54/h5-12,22-24,57H,1-4,13-17H2,(H2,37,46)(H,38,47)(H,39,43)(H,40,42)(H,41,48)(H,44,45)(H2,49,50,51)(H2,52,53,54)/t22-,23?,24?/m0/s1

>  <InChIKey>  (50) 
JNKZDIBIDJQPGC-BOMBAVFCSA-N

>  <SMILES>  (50) 
c1cc(ccc1C[C@@H](C(=O)NCCCCCC(=O)N[C@H](CS)C(=O)N)NC(=O)C(CC(=O)O)NC(=O)Cc2ccc(cc2)C(F)(F)P(=O)(O)O)C(F)(F)P(=O)(O)O

>  <MissingHeavyAtoms>  (50) 
9

>  <Model>  (50) 
1

>  <AltIds>  (50) 


>  <pKI>  (50) 
8.74

>  <ChemblID>  (50) 
-

>  <standardized_canonical_smiles>  (50) 
CCCCCNC(=O)[C@H](Cc1ccc(C(F)(F)P(=O)(O)O)cc1)NC(=O)C(CC(=O)O)NC(=O)Cc1ccc(C(F)(F)P(=O)(O)O)cc1

$$$$
5KAB_OTA_A_306
     RDKit          3D

 18 19  0  0  0  0  0  0  0  0999 V2000
   34.7350  -11.1920  -18.3220 N   0  0  0  0  0  0  0  0  0  0  0  0
   33.7230  -10.7040  -17.4250 C   0  0  0  0  0  0  0  0  0  0  0  0
   32.6010  -11.6480  -17.0050 C   0  0  0  0  0  0  0  0  0  0  0  0
   32.4700  -12.8510  -17.7620 C   0  0  0  0  0  0  0  0  0  0  0  0
   33.3670  -13.1700  -18.8970 C   0  0  0  0  0  0  0  0  0  0  0  0
   34.3510  -12.1580  -19.3430 C   0  0  0  0  0  0  0  0  0  0  0  0
   31.5040  -11.5880  -15.8820 S   0  0  0  0  0  0  0  0  0  0  0  0
   30.7150  -12.9260  -16.0680 C   0  0  0  0  0  0  0  0  0  0  0  0
   31.2640  -13.6540  -17.1660 C   0  0  0  0  0  0  0  0  0  0  0  0
   30.7550  -15.0220  -17.7250 C   0  0  0  0  0  0  0  0  0  0  0  0
   29.9060  -15.6790  -17.0580 O   0  0  0  0  0  0  0  0  0  0  0  0
   31.1910  -15.4540  -18.8830 O   0  0  0  0  0  0  0  0  0  0  0  0
   29.5840  -13.4040  -15.3560 N   0  0  0  0  0  0  0  0  0  0  0  0
   29.0810  -12.9740  -14.1150 C   0  0  0  0  0  0  0  0  0  0  0  0
   27.8000  -13.6770  -13.6930 C   0  0  0  0  0  0  0  0  0  0  0  0
   26.7970  -12.9040  -13.3980 O   0  0  0  0  0  0  0  0  0  0  0  0
   27.7460  -14.9500  -13.6750 O   0  0  0  0  0  0  0  0  0  0  0  0
   29.6200  -12.0960  -13.3760 O   0  0  0  0  0  0  0  0  0  0  0  0
  2  1  1  0
  6  1  1  0
  3  2  1  0
  4  3  2  0
  7  3  1  0
  5  4  1  0
  9  4  1  0
  6  5  1  0
  8  7  1  0
  9  8  2  0
 13  8  1  0
 10  9  1  0
 11 10  1  0
 12 10  2  0
 14 13  1  0
 15 14  1  0
 18 14  2  0
 16 15  1  0
 17 15  2  0
A    1
N1
A    2
C2
A    3
C3
A    4
C4
A    5
C5
A    6
C6
A    7
S13
A    8
C14
A    9
C15
A   10
C16
A   11
O17
A   12
O18
A   13
N19
A   14
C20
A   15
C21
A   16
O22
A   17
O23
A   18
O24
M  END
>  <Id>  (51) 
5KAB_OTA_A_306

>  <ChainId>  (51) 
A

>  <AsymId>  (51) 
G

>  <SeqNum>  (51) 
306

>  <Name>  (51) 
2-(OXALYL-AMINO)-4,5,6,7-TETRAHYDRO-THIENO[2,3-C]PYRIDINE-3-CARBOXYLIC ACID

>  <SystematicName>  (51) 
2-(carboxycarbonylamino)-4,5,6,7-tetrahydrothieno[5,4-c]pyridine-3-carboxylic acid

>  <Synonyms>  (51) 


>  <Type>  (51) 
NON-POLYMER

>  <Formula>  (51) 
C10 H10 N2 O5 S

>  <ObservedFormula>  (51) 
C10 S N2 O5

>  <MolecularWeight>  (51) 
270.262

>  <ModifiedDate>  (51) 
2011-06-04

>  <Parent>  (51) 


>  <OneLetterCode>  (51) 


>  <SubcomponentList>  (51) 


>  <AmbiguousFlag>  (51) 
N

>  <InsertionCode>  (51) 


>  <InstanceId>  (51) 
5KAB_OTA_A_306

>  <ChemCompId>  (51) 
OTA

>  <PdbId>  (51) 
5KAB

>  <ResidueNumber>  (51) 
306

>  <InChI>  (51) 
InChI=1S/C10H10N2O5S/c13-7(10(16)17)12-8-6(9(14)15)4-1-2-11-3-5(4)18-8/h11H,1-3H2,(H,12,13)(H,14,15)(H,16,17)

>  <InChIKey>  (51) 
ZIBMATWHOAGNTR-UHFFFAOYSA-N

>  <SMILES>  (51) 
C1CNCc2c1c(c(s2)NC(=O)C(=O)O)C(=O)O

>  <MissingHeavyAtoms>  (51) 
0

>  <Model>  (51) 
1

>  <AltIds>  (51) 


>  <pKI>  (51) 
5.29

>  <ChemblID>  (51) 
-

>  <standardized_canonical_smiles>  (51) 
O=C(O)C(=O)Nc1sc2c(c1C(=O)O)CCNC2

$$$$
5KA9_OTA_A_307
     RDKit          3D

 18 19  0  0  0  0  0  0  0  0999 V2000
   31.4230  -30.5800   -0.9150 N   0  0  0  0  0  0  0  0  0  0  0  0
   31.5910  -30.3730   -2.3380 C   0  0  0  0  0  0  0  0  0  0  0  0
   32.9950  -30.0800   -2.8540 C   0  0  0  0  0  0  0  0  0  0  0  0
   34.0630  -30.3910   -1.9520 C   0  0  0  0  0  0  0  0  0  0  0  0
   33.8380  -30.9850   -0.6020 C   0  0  0  0  0  0  0  0  0  0  0  0
   32.4580  -31.3730   -0.2390 C   0  0  0  0  0  0  0  0  0  0  0  0
   33.5570  -29.4700   -4.1980 S   0  0  0  0  0  0  0  0  0  0  0  0
   35.1050  -29.4920   -3.9700 C   0  0  0  0  0  0  0  0  0  0  0  0
   35.4070  -30.0050   -2.6800 C   0  0  0  0  0  0  0  0  0  0  0  0
   36.8440  -30.1550   -2.0870 C   0  0  0  0  0  0  0  0  0  0  0  0
   37.0100  -30.3680   -0.8120 O   0  0  0  0  0  0  0  0  0  0  0  0
   37.8450  -30.0410   -2.8590 O   0  0  0  0  0  0  0  0  0  0  0  0
   36.1680  -29.0530   -4.7980 N   0  0  0  0  0  0  0  0  0  0  0  0
   36.0470  -28.5940   -6.1170 C   0  0  0  0  0  0  0  0  0  0  0  0
   37.3420  -28.1420   -6.7590 C   0  0  0  0  0  0  0  0  0  0  0  0
   38.3820  -28.8190   -6.5420 O   0  0  0  0  0  0  0  0  0  0  0  0
   37.3540  -27.0640   -7.4720 O   0  0  0  0  0  0  0  0  0  0  0  0
   34.9510  -28.5720   -6.7310 O   0  0  0  0  0  0  0  0  0  0  0  0
  2  1  1  0
  6  1  1  0
  3  2  1  0
  4  3  2  0
  7  3  1  0
  5  4  1  0
  9  4  1  0
  6  5  1  0
  8  7  1  0
  9  8  2  0
 13  8  1  0
 10  9  1  0
 11 10  1  0
 12 10  2  0
 14 13  1  0
 15 14  1  0
 18 14  2  0
 16 15  1  0
 17 15  2  0
A    1
N1
A    2
C2
A    3
C3
A    4
C4
A    5
C5
A    6
C6
A    7
S13
A    8
C14
A    9
C15
A   10
C16
A   11
O17
A   12
O18
A   13
N19
A   14
C20
A   15
C21
A   16
O22
A   17
O23
A   18
O24
M  END
>  <Id>  (52) 
5KA9_OTA_A_307

>  <ChainId>  (52) 
A

>  <AsymId>  (52) 
H

>  <SeqNum>  (52) 
307

>  <Name>  (52) 
2-(OXALYL-AMINO)-4,5,6,7-TETRAHYDRO-THIENO[2,3-C]PYRIDINE-3-CARBOXYLIC ACID

>  <SystematicName>  (52) 
2-(carboxycarbonylamino)-4,5,6,7-tetrahydrothieno[5,4-c]pyridine-3-carboxylic acid

>  <Synonyms>  (52) 


>  <Type>  (52) 
NON-POLYMER

>  <Formula>  (52) 
C10 H10 N2 O5 S

>  <ObservedFormula>  (52) 
C10 S N2 O5

>  <MolecularWeight>  (52) 
270.262

>  <ModifiedDate>  (52) 
2011-06-04

>  <Parent>  (52) 


>  <OneLetterCode>  (52) 


>  <SubcomponentList>  (52) 


>  <AmbiguousFlag>  (52) 
N

>  <InsertionCode>  (52) 


>  <InstanceId>  (52) 
5KA9_OTA_A_307

>  <ChemCompId>  (52) 
OTA

>  <PdbId>  (52) 
5KA9

>  <ResidueNumber>  (52) 
307

>  <InChI>  (52) 
InChI=1S/C10H10N2O5S/c13-7(10(16)17)12-8-6(9(14)15)4-1-2-11-3-5(4)18-8/h11H,1-3H2,(H,12,13)(H,14,15)(H,16,17)

>  <InChIKey>  (52) 
ZIBMATWHOAGNTR-UHFFFAOYSA-N

>  <SMILES>  (52) 
C1CNCc2c1c(c(s2)NC(=O)C(=O)O)C(=O)O

>  <MissingHeavyAtoms>  (52) 
0

>  <Model>  (52) 
1

>  <AltIds>  (52) 


>  <pKI>  (52) 
5.29

>  <ChemblID>  (52) 
-

>  <standardized_canonical_smiles>  (52) 
O=C(O)C(=O)Nc1sc2c(c1C(=O)O)CCNC2

$$$$
1C88_OTA_A_301
     RDKit          3D

 18 19  0  0  0  0  0  0  0  0999 V2000
   45.3360   10.3740   -0.2750 N   0  0  0  0  0  0  0  0  0  0  0  0
   45.8220   10.6290    1.1010 C   0  0  0  0  0  0  0  0  0  0  0  0
   45.3220   11.9950    1.5280 C   0  0  0  0  0  0  0  0  0  0  0  0
   44.5870   12.8170    0.7260 C   0  0  0  0  0  0  0  0  0  0  0  0
   43.9230   12.4140   -0.5600 C   0  0  0  0  0  0  0  0  0  0  0  0
   43.9320   10.8990   -0.6460 C   0  0  0  0  0  0  0  0  0  0  0  0
   45.8010   12.7620    3.0770 S   0  0  0  0  0  0  0  0  0  0  0  0
   44.9160   14.1380    2.5710 C   0  0  0  0  0  0  0  0  0  0  0  0
   44.3520   14.0960    1.3660 C   0  0  0  0  0  0  0  0  0  0  0  0
   43.6680   15.2970    0.8590 C   0  0  0  0  0  0  0  0  0  0  0  0
   43.3030   16.2120    1.5490 O   0  0  0  0  0  0  0  0  0  0  0  0
   43.4890   15.2180   -0.4400 O   0  0  0  0  0  0  0  0  0  0  0  0
   44.8140   15.2810    3.4350 N   0  0  0  0  0  0  0  0  0  0  0  0
   45.4360   15.4480    4.6130 C   0  0  0  0  0  0  0  0  0  0  0  0
   45.2080   16.8310    5.1820 C   0  0  0  0  0  0  0  0  0  0  0  0
   46.0190   17.4230    5.8110 O   0  0  0  0  0  0  0  0  0  0  0  0
   43.9100   17.2990    5.0610 O   0  0  0  0  0  0  0  0  0  0  0  0
   46.0470   14.5650    5.2640 O   0  0  0  0  0  0  0  0  0  0  0  0
  2  1  1  0
  6  1  1  0
  3  2  1  0
  4  3  2  0
  7  3  1  0
  5  4  1  0
  9  4  1  0
  6  5  1  0
  8  7  1  0
  9  8  2  0
 13  8  1  0
 10  9  1  0
 11 10  1  0
 12 10  2  0
 14 13  1  0
 15 14  1  0
 18 14  2  0
 16 15  1  0
 17 15  2  0
A    1
N1
A    2
C2
A    3
C3
A    4
C4
A    5
C5
A    6
C6
A    7
S13
A    8
C14
A    9
C15
A   10
C16
A   11
O17
A   12
O18
A   13
N19
A   14
C20
A   15
C21
A   16
O22
A   17
O23
A   18
O24
M  END
>  <Id>  (53) 
1C88_OTA_A_301

>  <ChainId>  (53) 
A

>  <AsymId>  (53) 
B

>  <SeqNum>  (53) 
301

>  <Name>  (53) 
2-(OXALYL-AMINO)-4,5,6,7-TETRAHYDRO-THIENO[2,3-C]PYRIDINE-3-CARBOXYLIC ACID

>  <SystematicName>  (53) 
2-(carboxycarbonylamino)-4,5,6,7-tetrahydrothieno[5,4-c]pyridine-3-carboxylic acid

>  <Synonyms>  (53) 


>  <Type>  (53) 
NON-POLYMER

>  <Formula>  (53) 
C10 H10 N2 O5 S

>  <ObservedFormula>  (53) 
C10 S N2 O5

>  <MolecularWeight>  (53) 
270.262

>  <ModifiedDate>  (53) 
2011-06-04

>  <Parent>  (53) 


>  <OneLetterCode>  (53) 


>  <SubcomponentList>  (53) 


>  <AmbiguousFlag>  (53) 
N

>  <InsertionCode>  (53) 


>  <InstanceId>  (53) 
1C88_OTA_A_301

>  <ChemCompId>  (53) 
OTA

>  <PdbId>  (53) 
1C88

>  <ResidueNumber>  (53) 
301

>  <InChI>  (53) 
InChI=1S/C10H10N2O5S/c13-7(10(16)17)12-8-6(9(14)15)4-1-2-11-3-5(4)18-8/h11H,1-3H2,(H,12,13)(H,14,15)(H,16,17)

>  <InChIKey>  (53) 
ZIBMATWHOAGNTR-UHFFFAOYSA-N

>  <SMILES>  (53) 
C1CNCc2c1c(c(s2)NC(=O)C(=O)O)C(=O)O

>  <MissingHeavyAtoms>  (53) 
0

>  <Model>  (53) 
1

>  <AltIds>  (53) 


>  <pKI>  (53) 
5.29

>  <ChemblID>  (53) 
-

>  <standardized_canonical_smiles>  (53) 
O=C(O)C(=O)Nc1sc2c(c1C(=O)O)CCNC2

$$$$
5KA7_OTA_A_303
     RDKit          3D

 18 19  0  0  0  0  0  0  0  0999 V2000
  -42.5890   10.4530    0.0390 N   0  0  0  0  0  0  0  0  0  0  0  0
  -42.3690   10.7370    1.4510 C   0  0  0  0  0  0  0  0  0  0  0  0
  -42.7580   12.1250    1.9570 C   0  0  0  0  0  0  0  0  0  0  0  0
  -43.5590   12.8950    1.0600 C   0  0  0  0  0  0  0  0  0  0  0  0
  -44.0300   12.3910   -0.2600 C   0  0  0  0  0  0  0  0  0  0  0  0
  -43.8550   10.9500   -0.4920 C   0  0  0  0  0  0  0  0  0  0  0  0
  -42.4200   12.9490    3.2750 S   0  0  0  0  0  0  0  0  0  0  0  0
  -43.2020   14.2950    2.9980 C   0  0  0  0  0  0  0  0  0  0  0  0
  -43.8370   14.2760    1.7430 C   0  0  0  0  0  0  0  0  0  0  0  0
  -44.6680   15.4390    1.1120 C   0  0  0  0  0  0  0  0  0  0  0  0
  -45.1170   16.3800    1.8830 O   0  0  0  0  0  0  0  0  0  0  0  0
  -44.8830   15.4590   -0.1330 O   0  0  0  0  0  0  0  0  0  0  0  0
  -43.3560   15.4780    3.7600 N   0  0  0  0  0  0  0  0  0  0  0  0
  -42.8180   15.6630    5.0330 C   0  0  0  0  0  0  0  0  0  0  0  0
  -43.1320   17.0180    5.6200 C   0  0  0  0  0  0  0  0  0  0  0  0
  -42.2000   17.6530    6.2240 O   0  0  0  0  0  0  0  0  0  0  0  0
  -44.2680   17.4900    5.4010 O   0  0  0  0  0  0  0  0  0  0  0  0
  -42.1210   14.8110    5.6160 O   0  0  0  0  0  0  0  0  0  0  0  0
  2  1  1  0
  6  1  1  0
  3  2  1  0
  4  3  2  0
  7  3  1  0
  5  4  1  0
  9  4  1  0
  6  5  1  0
  8  7  1  0
  9  8  2  0
 13  8  1  0
 10  9  1  0
 11 10  1  0
 12 10  2  0
 14 13  1  0
 15 14  1  0
 18 14  2  0
 16 15  1  0
 17 15  2  0
A    1
N1
A    2
C2
A    3
C3
A    4
C4
A    5
C5
A    6
C6
A    7
S13
A    8
C14
A    9
C15
A   10
C16
A   11
O17
A   12
O18
A   13
N19
A   14
C20
A   15
C21
A   16
O22
A   17
O23
A   18
O24
M  END
>  <Id>  (54) 
5KA7_OTA_A_303

>  <ChainId>  (54) 
A

>  <AsymId>  (54) 
D

>  <SeqNum>  (54) 
303

>  <Name>  (54) 
2-(OXALYL-AMINO)-4,5,6,7-TETRAHYDRO-THIENO[2,3-C]PYRIDINE-3-CARBOXYLIC ACID

>  <SystematicName>  (54) 
2-(carboxycarbonylamino)-4,5,6,7-tetrahydrothieno[5,4-c]pyridine-3-carboxylic acid

>  <Synonyms>  (54) 


>  <Type>  (54) 
NON-POLYMER

>  <Formula>  (54) 
C10 H10 N2 O5 S

>  <ObservedFormula>  (54) 
C10 S N2 O5

>  <MolecularWeight>  (54) 
270.262

>  <ModifiedDate>  (54) 
2011-06-04

>  <Parent>  (54) 


>  <OneLetterCode>  (54) 


>  <SubcomponentList>  (54) 


>  <AmbiguousFlag>  (54) 
N

>  <InsertionCode>  (54) 


>  <InstanceId>  (54) 
5KA7_OTA_A_303

>  <ChemCompId>  (54) 
OTA

>  <PdbId>  (54) 
5KA7

>  <ResidueNumber>  (54) 
303

>  <InChI>  (54) 
InChI=1S/C10H10N2O5S/c13-7(10(16)17)12-8-6(9(14)15)4-1-2-11-3-5(4)18-8/h11H,1-3H2,(H,12,13)(H,14,15)(H,16,17)

>  <InChIKey>  (54) 
ZIBMATWHOAGNTR-UHFFFAOYSA-N

>  <SMILES>  (54) 
C1CNCc2c1c(c(s2)NC(=O)C(=O)O)C(=O)O

>  <MissingHeavyAtoms>  (54) 
0

>  <Model>  (54) 
1

>  <AltIds>  (54) 


>  <pKI>  (54) 
5.29

>  <ChemblID>  (54) 
-

>  <standardized_canonical_smiles>  (54) 
O=C(O)C(=O)Nc1sc2c(c1C(=O)O)CCNC2

$$$$
5KA1_OTA_A_301
     RDKit          3D

 18 19  0  0  0  0  0  0  0  0999 V2000
    6.9520  117.6980   -6.5670 N   0  0  0  0  0  0  0  0  0  0  0  0
    6.8800  118.2870   -5.2480 C   0  0  0  0  0  0  0  0  0  0  0  0
    5.5060  118.7250   -4.7590 C   0  0  0  0  0  0  0  0  0  0  0  0
    4.4010  118.2150   -5.5120 C   0  0  0  0  0  0  0  0  0  0  0  0
    4.5650  117.3220   -6.6830 C   0  0  0  0  0  0  0  0  0  0  0  0
    5.9050  116.7200   -6.8520 C   0  0  0  0  0  0  0  0  0  0  0  0
    5.0090  119.6530   -3.5850 S   0  0  0  0  0  0  0  0  0  0  0  0
    3.4510  119.5730   -3.7690 C   0  0  0  0  0  0  0  0  0  0  0  0
    3.0980  118.7620   -4.8590 C   0  0  0  0  0  0  0  0  0  0  0  0
    1.6450  118.4970   -5.3530 C   0  0  0  0  0  0  0  0  0  0  0  0
    0.6690  118.8160   -4.6230 O   0  0  0  0  0  0  0  0  0  0  0  0
    1.4760  117.9930   -6.5370 O   0  0  0  0  0  0  0  0  0  0  0  0
    2.3960  120.1520   -3.0480 N   0  0  0  0  0  0  0  0  0  0  0  0
    2.5930  121.0030   -1.9750 C   0  0  0  0  0  0  0  0  0  0  0  0
    1.2990  121.4910   -1.3720 C   0  0  0  0  0  0  0  0  0  0  0  0
    1.1800  122.7110   -0.9940 O   0  0  0  0  0  0  0  0  0  0  0  0
    0.3600  120.6560   -1.2920 O   0  0  0  0  0  0  0  0  0  0  0  0
    3.7340  121.3220   -1.5660 O   0  0  0  0  0  0  0  0  0  0  0  0
  2  1  1  0
  6  1  1  0
  3  2  1  0
  4  3  2  0
  7  3  1  0
  5  4  1  0
  9  4  1  0
  6  5  1  0
  8  7  1  0
  9  8  2  0
 13  8  1  0
 10  9  1  0
 11 10  1  0
 12 10  2  0
 14 13  1  0
 15 14  1  0
 18 14  2  0
 16 15  1  0
 17 15  2  0
A    1
N1
A    2
C2
A    3
C3
A    4
C4
A    5
C5
A    6
C6
A    7
S13
A    8
C14
A    9
C15
A   10
C16
A   11
O17
A   12
O18
A   13
N19
A   14
C20
A   15
C21
A   16
O22
A   17
O23
A   18
O24
M  END
>  <Id>  (55) 
5KA1_OTA_A_301

>  <ChainId>  (55) 
A

>  <AsymId>  (55) 
B

>  <SeqNum>  (55) 
301

>  <Name>  (55) 
2-(OXALYL-AMINO)-4,5,6,7-TETRAHYDRO-THIENO[2,3-C]PYRIDINE-3-CARBOXYLIC ACID

>  <SystematicName>  (55) 
2-(carboxycarbonylamino)-4,5,6,7-tetrahydrothieno[5,4-c]pyridine-3-carboxylic acid

>  <Synonyms>  (55) 


>  <Type>  (55) 
NON-POLYMER

>  <Formula>  (55) 
C10 H10 N2 O5 S

>  <ObservedFormula>  (55) 
C10 S N2 O5

>  <MolecularWeight>  (55) 
270.262

>  <ModifiedDate>  (55) 
2011-06-04

>  <Parent>  (55) 


>  <OneLetterCode>  (55) 


>  <SubcomponentList>  (55) 


>  <AmbiguousFlag>  (55) 
N

>  <InsertionCode>  (55) 


>  <InstanceId>  (55) 
5KA1_OTA_A_301

>  <ChemCompId>  (55) 
OTA

>  <PdbId>  (55) 
5KA1

>  <ResidueNumber>  (55) 
301

>  <InChI>  (55) 
InChI=1S/C10H10N2O5S/c13-7(10(16)17)12-8-6(9(14)15)4-1-2-11-3-5(4)18-8/h11H,1-3H2,(H,12,13)(H,14,15)(H,16,17)

>  <InChIKey>  (55) 
ZIBMATWHOAGNTR-UHFFFAOYSA-N

>  <SMILES>  (55) 
C1CNCc2c1c(c(s2)NC(=O)C(=O)O)C(=O)O

>  <MissingHeavyAtoms>  (55) 
0

>  <Model>  (55) 
1

>  <AltIds>  (55) 


>  <pKI>  (55) 
5.29

>  <ChemblID>  (55) 
-

>  <standardized_canonical_smiles>  (55) 
O=C(O)C(=O)Nc1sc2c(c1C(=O)O)CCNC2

$$$$
5KA3_OTA_A_401
     RDKit          3D

 18 19  0  0  0  0  0  0  0  0999 V2000
  -42.5840   10.3940    0.0580 N   0  0  0  0  0  0  0  0  0  0  0  0
  -42.3620   10.8300    1.4400 C   0  0  0  0  0  0  0  0  0  0  0  0
  -42.7800   12.2500    1.8520 C   0  0  0  0  0  0  0  0  0  0  0  0
  -43.5800   13.0190    0.9300 C   0  0  0  0  0  0  0  0  0  0  0  0
  -43.9970   12.4320   -0.3870 C   0  0  0  0  0  0  0  0  0  0  0  0
  -43.7820   10.9650   -0.6230 C   0  0  0  0  0  0  0  0  0  0  0  0
  -42.5050   13.1110    3.1360 S   0  0  0  0  0  0  0  0  0  0  0  0
  -43.2260   14.4710    2.8820 C   0  0  0  0  0  0  0  0  0  0  0  0
  -43.8650   14.4380    1.5920 C   0  0  0  0  0  0  0  0  0  0  0  0
  -44.6670   15.5860    0.9870 C   0  0  0  0  0  0  0  0  0  0  0  0
  -45.1090   16.4950    1.7350 O   0  0  0  0  0  0  0  0  0  0  0  0
  -44.8790   15.6290   -0.2520 O   0  0  0  0  0  0  0  0  0  0  0  0
  -43.3170   15.6440    3.7110 N   0  0  0  0  0  0  0  0  0  0  0  0
  -42.8290   15.7920    5.0590 C   0  0  0  0  0  0  0  0  0  0  0  0
  -43.0770   17.1550    5.6760 C   0  0  0  0  0  0  0  0  0  0  0  0
  -42.1540   17.7620    6.2730 O   0  0  0  0  0  0  0  0  0  0  0  0
  -44.2270   17.6610    5.5520 O   0  0  0  0  0  0  0  0  0  0  0  0
  -42.2890   14.9230    5.6500 O   0  0  0  0  0  0  0  0  0  0  0  0
  2  1  1  0
  6  1  1  0
  3  2  1  0
  4  3  2  0
  7  3  1  0
  5  4  1  0
  9  4  1  0
  6  5  1  0
  8  7  1  0
  9  8  2  0
 13  8  1  0
 10  9  1  0
 11 10  1  0
 12 10  2  0
 14 13  1  0
 15 14  1  0
 18 14  2  0
 16 15  1  0
 17 15  2  0
A    1
N1
A    2
C2
A    3
C3
A    4
C4
A    5
C5
A    6
C6
A    7
S13
A    8
C14
A    9
C15
A   10
C16
A   11
O17
A   12
O18
A   13
N19
A   14
C20
A   15
C21
A   16
O22
A   17
O23
A   18
O24
M  END
>  <Id>  (56) 
5KA3_OTA_A_401

>  <ChainId>  (56) 
A

>  <AsymId>  (56) 
B

>  <SeqNum>  (56) 
401

>  <Name>  (56) 
2-(OXALYL-AMINO)-4,5,6,7-TETRAHYDRO-THIENO[2,3-C]PYRIDINE-3-CARBOXYLIC ACID

>  <SystematicName>  (56) 
2-(carboxycarbonylamino)-4,5,6,7-tetrahydrothieno[5,4-c]pyridine-3-carboxylic acid

>  <Synonyms>  (56) 


>  <Type>  (56) 
NON-POLYMER

>  <Formula>  (56) 
C10 H10 N2 O5 S

>  <ObservedFormula>  (56) 
C10 S N2 O5

>  <MolecularWeight>  (56) 
270.262

>  <ModifiedDate>  (56) 
2011-06-04

>  <Parent>  (56) 


>  <OneLetterCode>  (56) 


>  <SubcomponentList>  (56) 


>  <AmbiguousFlag>  (56) 
N

>  <InsertionCode>  (56) 


>  <InstanceId>  (56) 
5KA3_OTA_A_401

>  <ChemCompId>  (56) 
OTA

>  <PdbId>  (56) 
5KA3

>  <ResidueNumber>  (56) 
401

>  <InChI>  (56) 
InChI=1S/C10H10N2O5S/c13-7(10(16)17)12-8-6(9(14)15)4-1-2-11-3-5(4)18-8/h11H,1-3H2,(H,12,13)(H,14,15)(H,16,17)

>  <InChIKey>  (56) 
ZIBMATWHOAGNTR-UHFFFAOYSA-N

>  <SMILES>  (56) 
C1CNCc2c1c(c(s2)NC(=O)C(=O)O)C(=O)O

>  <MissingHeavyAtoms>  (56) 
0

>  <Model>  (56) 
1

>  <AltIds>  (56) 


>  <pKI>  (56) 
5.29

>  <ChemblID>  (56) 
-

>  <standardized_canonical_smiles>  (56) 
O=C(O)C(=O)Nc1sc2c(c1C(=O)O)CCNC2

$$$$
5K9W_OTA_A_402
     RDKit          3D

 18 19  0  0  0  0  0  0  0  0999 V2000
   32.0670  -34.5270  -17.4040 N   0  0  0  0  0  0  0  0  0  0  0  0
   32.4760  -34.6160  -15.9990 C   0  0  0  0  0  0  0  0  0  0  0  0
   33.4500  -33.5490  -15.4930 C   0  0  0  0  0  0  0  0  0  0  0  0
   33.7610  -32.4940  -16.4130 C   0  0  0  0  0  0  0  0  0  0  0  0
   33.1420  -32.3430  -17.7680 C   0  0  0  0  0  0  0  0  0  0  0  0
   31.9310  -33.1680  -17.9770 C   0  0  0  0  0  0  0  0  0  0  0  0
   34.2800  -33.3910  -14.1330 S   0  0  0  0  0  0  0  0  0  0  0  0
   35.0470  -32.0480  -14.4250 C   0  0  0  0  0  0  0  0  0  0  0  0
   34.7910  -31.5580  -15.7110 C   0  0  0  0  0  0  0  0  0  0  0  0
   35.3860  -30.2670  -16.3530 C   0  0  0  0  0  0  0  0  0  0  0  0
   36.0300  -29.4660  -15.6460 O   0  0  0  0  0  0  0  0  0  0  0  0
   35.2010  -30.0150  -17.6110 O   0  0  0  0  0  0  0  0  0  0  0  0
   35.9570  -31.3140  -13.6440 N   0  0  0  0  0  0  0  0  0  0  0  0
   36.4120  -31.7500  -12.4100 C   0  0  0  0  0  0  0  0  0  0  0  0
   37.4310  -30.8200  -11.8080 C   0  0  0  0  0  0  0  0  0  0  0  0
   38.3940  -31.4070  -11.2100 O   0  0  0  0  0  0  0  0  0  0  0  0
   37.2960  -29.5930  -12.0130 O   0  0  0  0  0  0  0  0  0  0  0  0
   36.0560  -32.7960  -11.8450 O   0  0  0  0  0  0  0  0  0  0  0  0
  2  1  1  0
  6  1  1  0
  3  2  1  0
  4  3  2  0
  7  3  1  0
  5  4  1  0
  9  4  1  0
  6  5  1  0
  8  7  1  0
  9  8  2  0
 13  8  1  0
 10  9  1  0
 11 10  1  0
 12 10  2  0
 14 13  1  0
 15 14  1  0
 18 14  2  0
 16 15  1  0
 17 15  2  0
A    1
N1
A    2
C2
A    3
C3
A    4
C4
A    5
C5
A    6
C6
A    7
S13
A    8
C14
A    9
C15
A   10
C16
A   11
O17
A   12
O18
A   13
N19
A   14
C20
A   15
C21
A   16
O22
A   17
O23
A   18
O24
M  END
>  <Id>  (57) 
5K9W_OTA_A_402

>  <ChainId>  (57) 
A

>  <AsymId>  (57) 
C

>  <SeqNum>  (57) 
402

>  <Name>  (57) 
2-(OXALYL-AMINO)-4,5,6,7-TETRAHYDRO-THIENO[2,3-C]PYRIDINE-3-CARBOXYLIC ACID

>  <SystematicName>  (57) 
2-(carboxycarbonylamino)-4,5,6,7-tetrahydrothieno[5,4-c]pyridine-3-carboxylic acid

>  <Synonyms>  (57) 


>  <Type>  (57) 
NON-POLYMER

>  <Formula>  (57) 
C10 H10 N2 O5 S

>  <ObservedFormula>  (57) 
C10 S N2 O5

>  <MolecularWeight>  (57) 
270.262

>  <ModifiedDate>  (57) 
2011-06-04

>  <Parent>  (57) 


>  <OneLetterCode>  (57) 


>  <SubcomponentList>  (57) 


>  <AmbiguousFlag>  (57) 
N

>  <InsertionCode>  (57) 


>  <InstanceId>  (57) 
5K9W_OTA_A_402

>  <ChemCompId>  (57) 
OTA

>  <PdbId>  (57) 
5K9W

>  <ResidueNumber>  (57) 
402

>  <InChI>  (57) 
InChI=1S/C10H10N2O5S/c13-7(10(16)17)12-8-6(9(14)15)4-1-2-11-3-5(4)18-8/h11H,1-3H2,(H,12,13)(H,14,15)(H,16,17)

>  <InChIKey>  (57) 
ZIBMATWHOAGNTR-UHFFFAOYSA-N

>  <SMILES>  (57) 
C1CNCc2c1c(c(s2)NC(=O)C(=O)O)C(=O)O

>  <MissingHeavyAtoms>  (57) 
0

>  <Model>  (57) 
1

>  <AltIds>  (57) 


>  <pKI>  (57) 
5.29

>  <ChemblID>  (57) 
-

>  <standardized_canonical_smiles>  (57) 
O=C(O)C(=O)Nc1sc2c(c1C(=O)O)CCNC2

$$$$
5KAD_OTA_B_401
     RDKit          3D

 18 19  0  0  0  0  0  0  0  0999 V2000
   51.8110  -29.1830   39.0640 N   0  0  0  0  0  0  0  0  0  0  0  0
   51.8360  -27.7530   38.8880 C   0  0  0  0  0  0  0  0  0  0  0  0
   52.2780  -27.1920   37.5420 C   0  0  0  0  0  0  0  0  0  0  0  0
   52.7650  -28.1230   36.5780 C   0  0  0  0  0  0  0  0  0  0  0  0
   52.8310  -29.5750   36.8630 C   0  0  0  0  0  0  0  0  0  0  0  0
   52.7300  -29.9960   38.2720 C   0  0  0  0  0  0  0  0  0  0  0  0
   52.3230  -25.7490   36.9510 S   0  0  0  0  0  0  0  0  0  0  0  0
   52.8900  -25.9550   35.5180 C   0  0  0  0  0  0  0  0  0  0  0  0
   53.1490  -27.3150   35.2870 C   0  0  0  0  0  0  0  0  0  0  0  0
   53.7410  -27.8800   33.9630 C   0  0  0  0  0  0  0  0  0  0  0  0
   54.1670  -29.1090   33.9220 O   0  0  0  0  0  0  0  0  0  0  0  0
   53.8200  -27.1250   32.9470 O   0  0  0  0  0  0  0  0  0  0  0  0
   53.1810  -25.0400   34.4860 N   0  0  0  0  0  0  0  0  0  0  0  0
   53.0090  -23.6580   34.5740 C   0  0  0  0  0  0  0  0  0  0  0  0
   53.4070  -22.9220   33.3220 C   0  0  0  0  0  0  0  0  0  0  0  0
   53.9940  -21.7870   33.3880 O   0  0  0  0  0  0  0  0  0  0  0  0
   53.1680  -23.4780   32.2250 O   0  0  0  0  0  0  0  0  0  0  0  0
   52.5640  -23.0930   35.5940 O   0  0  0  0  0  0  0  0  0  0  0  0
  2  1  1  0
  6  1  1  0
  3  2  1  0
  4  3  2  0
  7  3  1  0
  5  4  1  0
  9  4  1  0
  6  5  1  0
  8  7  1  0
  9  8  2  0
 13  8  1  0
 10  9  1  0
 11 10  1  0
 12 10  2  0
 14 13  1  0
 15 14  1  0
 18 14  2  0
 16 15  1  0
 17 15  2  0
A    1
N1
A    2
C2
A    3
C3
A    4
C4
A    5
C5
A    6
C6
A    7
S13
A    8
C14
A    9
C15
A   10
C16
A   11
O17
A   12
O18
A   13
N19
A   14
C20
A   15
C21
A   16
O22
A   17
O23
A   18
O24
M  END
>  <Id>  (58) 
5KAD_OTA_B_401

>  <ChainId>  (58) 
B

>  <AsymId>  (58) 
H

>  <SeqNum>  (58) 
401

>  <Name>  (58) 
2-(OXALYL-AMINO)-4,5,6,7-TETRAHYDRO-THIENO[2,3-C]PYRIDINE-3-CARBOXYLIC ACID

>  <SystematicName>  (58) 
2-(carboxycarbonylamino)-4,5,6,7-tetrahydrothieno[5,4-c]pyridine-3-carboxylic acid

>  <Synonyms>  (58) 


>  <Type>  (58) 
NON-POLYMER

>  <Formula>  (58) 
C10 H10 N2 O5 S

>  <ObservedFormula>  (58) 
C10 S N2 O5

>  <MolecularWeight>  (58) 
270.262

>  <ModifiedDate>  (58) 
2011-06-04

>  <Parent>  (58) 


>  <OneLetterCode>  (58) 


>  <SubcomponentList>  (58) 


>  <AmbiguousFlag>  (58) 
N

>  <InsertionCode>  (58) 


>  <InstanceId>  (58) 
5KAD_OTA_B_401

>  <ChemCompId>  (58) 
OTA

>  <PdbId>  (58) 
5KAD

>  <ResidueNumber>  (58) 
401

>  <InChI>  (58) 
InChI=1S/C10H10N2O5S/c13-7(10(16)17)12-8-6(9(14)15)4-1-2-11-3-5(4)18-8/h11H,1-3H2,(H,12,13)(H,14,15)(H,16,17)

>  <InChIKey>  (58) 
ZIBMATWHOAGNTR-UHFFFAOYSA-N

>  <SMILES>  (58) 
C1CNCc2c1c(c(s2)NC(=O)C(=O)O)C(=O)O

>  <MissingHeavyAtoms>  (58) 
0

>  <Model>  (58) 
1

>  <AltIds>  (58) 


>  <pKI>  (58) 
5.29

>  <ChemblID>  (58) 
-

>  <standardized_canonical_smiles>  (58) 
O=C(O)C(=O)Nc1sc2c(c1C(=O)O)CCNC2

$$$$
