1ED5_NRG_B_2705
     RDKit          3D

 15 14  0  0  0  0  0  0  0  0999 V2000
   -2.6160    6.7680   62.6080 N   0  0  0  0  0  0  0  0  0  0  0  0
   -3.2140    6.2460   63.8480 C   0  0  0  0  0  0  0  0  0  0  0  0
   -2.4250    6.8130   65.0650 C   0  0  0  0  0  0  0  0  0  0  0  0
   -0.9170    6.4900   65.0120 C   0  0  0  0  0  0  0  0  0  0  0  0
   -0.1370    7.3520   66.0300 C   0  0  0  0  0  0  0  0  0  0  0  0
   -0.4370    8.7860   65.8870 N   0  0  0  0  0  0  0  0  0  0  0  0
   -0.0910    9.7450   66.7300 C   0  0  0  0  0  0  0  0  0  0  0  0
    0.6130    9.4540   67.8420 N   0  0  0  0  0  0  0  0  0  0  0  0
   -0.4130   10.9990   66.4330 N   0  0  0  0  0  0  0  0  0  0  0  0
   -4.7060    6.6210   63.9230 C   0  0  0  0  0  0  0  0  0  0  0  0
   -5.3560    6.2480   64.9190 O   0  0  0  0  0  0  0  0  0  0  0  0
   -5.1860    7.2730   62.9910 O   0  0  0  0  0  0  0  0  0  0  0  0
    0.7310   10.2730   69.0430 N   0  0  0  0  0  0  0  0  0  0  0  0
    1.0470    9.7590   70.0830 O   0  0  0  0  0  0  0  0  0  0  0  0
    0.4810   11.4630   69.0210 O   0  0  0  0  0  0  0  0  0  0  0  0
  2  1  1  0
  3  2  1  0
 10  2  1  0
  4  3  1  0
  5  4  1  0
  6  5  1  0
  7  6  1  0
  8  7  1  0
  9  7  2  0
 13  8  1  0
 11 10  2  0
 12 10  1  0
 14 13  1  0
 15 13  2  0
M  CHG  2  13   1  14  -1
A    1
N
A    2
CA
A    3
CB
A    4
CG
A    5
CD
A    6
NE
A    7
CZ
A    8
NH1
A    9
NH2
A   10
C
A   11
OA1
A   12
OA2
A   13
N1
A   14
O2
A   15
O3
M  END
>  <Id>  (1) 
1ED5_NRG_B_2705

>  <ChainId>  (1) 
B

>  <AsymId>  (1) 
L

>  <SeqNum>  (1) 
2705

>  <Name>  (1) 
N-OMEGA-NITRO-L-ARGININE

>  <SystematicName>  (1) 
(2S)-2-amino-5-[(N-nitrocarbamimidoyl)amino]pentanoic acid

>  <Synonyms>  (1) 
NNA

>  <Type>  (1) 
L-PEPTIDE LINKING

>  <Formula>  (1) 
C6 H13 N5 O4

>  <ObservedFormula>  (1) 
C6 N5 O4

>  <MolecularWeight>  (1) 
219.199

>  <ModifiedDate>  (1) 
2011-06-04

>  <Parent>  (1) 


>  <OneLetterCode>  (1) 


>  <SubcomponentList>  (1) 


>  <AmbiguousFlag>  (1) 
N

>  <InsertionCode>  (1) 


>  <InstanceId>  (1) 
1ED5_NRG_B_2705

>  <ChemCompId>  (1) 
NRG

>  <PdbId>  (1) 
1ED5

>  <ResidueNumber>  (1) 
2705

>  <InChI>  (1) 
InChI=1S/C6H13N5O4/c7-4(5(12)13)2-1-3-9-6(8)10-11(14)15/h4H,1-3,7H2,(H,12,13)(H3,8,9,10)/t4-/m0/s1

>  <InChIKey>  (1) 
MRAUNPAHJZDYCK-BYPYZUCNSA-N

>  <SMILES>  (1) 
[H]/N=C(\NCCC[C@@H](C(=O)O)N)/N[N+](=O)[O-]

>  <MissingHeavyAtoms>  (1) 
0

>  <Model>  (1) 
1

>  <AltIds>  (1) 


>  <pKI>  (1) 
6.13

>  <ChemblID>  (1) 
CHEMBL227744

>  <standardized_canonical_smiles>  (1) 
N=C(NCCC[C@H](N)C(=O)O)N[N+](=O)[O-]

$$$$
8NSE_NRG_B_706
     RDKit          3D

 15 14  0  0  0  0  0  0  0  0999 V2000
   -2.3330    6.4220   62.9770 N   0  0  0  0  0  0  0  0  0  0  0  0
   -2.9840    5.8090   64.1740 C   0  0  0  0  0  0  0  0  0  0  0  0
   -2.2890    6.3070   65.4310 C   0  0  0  0  0  0  0  0  0  0  0  0
   -0.8270    5.9580   65.4540 C   0  0  0  0  0  0  0  0  0  0  0  0
   -0.1400    6.7300   66.5350 C   0  0  0  0  0  0  0  0  0  0  0  0
   -0.3230    8.1550   66.3010 N   0  0  0  0  0  0  0  0  0  0  0  0
    0.2470    9.1260   67.0060 C   0  0  0  0  0  0  0  0  0  0  0  0
    1.0970    8.8660   67.9980 N   0  0  0  0  0  0  0  0  0  0  0  0
   -0.0570   10.3830   66.7200 N   0  0  0  0  0  0  0  0  0  0  0  0
   -4.4730    6.1600   64.2250 C   0  0  0  0  0  0  0  0  0  0  0  0
   -5.1590    5.7250   65.1760 O   0  0  0  0  0  0  0  0  0  0  0  0
   -4.9200    6.8780   63.3120 O   0  0  0  0  0  0  0  0  0  0  0  0
    1.0880    9.6750   69.2180 N   0  0  0  0  0  0  0  0  0  0  0  0
    1.4790    9.2120   70.2600 O   0  0  0  0  0  0  0  0  0  0  0  0
    0.6970   10.8280   69.1830 O   0  0  0  0  0  0  0  0  0  0  0  0
  2  1  1  0
  3  2  1  0
 10  2  1  0
  4  3  1  0
  5  4  1  0
  6  5  1  0
  7  6  1  0
  8  7  1  0
  9  7  2  0
 13  8  1  0
 11 10  2  0
 12 10  1  0
 14 13  1  0
 15 13  2  0
M  CHG  2  13   1  14  -1
A    1
N
A    2
CA
A    3
CB
A    4
CG
A    5
CD
A    6
NE
A    7
CZ
A    8
NH1
A    9
NH2
A   10
C
A   11
OA1
A   12
OA2
A   13
N1
A   14
O2
A   15
O3
M  END
>  <Id>  (2) 
8NSE_NRG_B_706

>  <ChainId>  (2) 
B

>  <AsymId>  (2) 
K

>  <SeqNum>  (2) 
706

>  <Name>  (2) 
N-OMEGA-NITRO-L-ARGININE

>  <SystematicName>  (2) 
(2S)-2-amino-5-[(N-nitrocarbamimidoyl)amino]pentanoic acid

>  <Synonyms>  (2) 
NNA

>  <Type>  (2) 
L-PEPTIDE LINKING

>  <Formula>  (2) 
C6 H13 N5 O4

>  <ObservedFormula>  (2) 
C6 N5 O4

>  <MolecularWeight>  (2) 
219.199

>  <ModifiedDate>  (2) 
2011-06-04

>  <Parent>  (2) 


>  <OneLetterCode>  (2) 


>  <SubcomponentList>  (2) 


>  <AmbiguousFlag>  (2) 
N

>  <InsertionCode>  (2) 


>  <InstanceId>  (2) 
8NSE_NRG_B_706

>  <ChemCompId>  (2) 
NRG

>  <PdbId>  (2) 
8NSE

>  <ResidueNumber>  (2) 
706

>  <InChI>  (2) 
InChI=1S/C6H13N5O4/c7-4(5(12)13)2-1-3-9-6(8)10-11(14)15/h4H,1-3,7H2,(H,12,13)(H3,8,9,10)/t4-/m0/s1

>  <InChIKey>  (2) 
MRAUNPAHJZDYCK-BYPYZUCNSA-N

>  <SMILES>  (2) 
[H]/N=C(\NCCC[C@@H](C(=O)O)N)/N[N+](=O)[O-]

>  <MissingHeavyAtoms>  (2) 
0

>  <Model>  (2) 
1

>  <AltIds>  (2) 


>  <pKI>  (2) 
6.13

>  <ChemblID>  (2) 
CHEMBL227744

>  <standardized_canonical_smiles>  (2) 
N=C(NCCC[C@H](N)C(=O)O)N[N+](=O)[O-]

$$$$
2HX2_3HX_B_793
     RDKit          3D

 18 17  0  0  0  0  0  0  0  0999 V2000
    0.6640    9.9600   69.0860 N   0  0  0  0  0  0  0  0  0  0  0  0
    0.8910    9.3290   70.1570 O   0  0  0  0  0  0  0  0  0  0  0  0
    0.4670   11.2140   69.1350 O   0  0  0  0  0  0  0  0  0  0  0  0
    0.0550    3.7170   63.4580 N   0  0  0  0  0  0  0  0  0  0  0  0
    0.1610    4.4460   64.7510 C   0  0  0  0  0  0  0  0  0  0  0  0
    0.5850    3.4370   65.8840 C   0  0  0  0  0  0  0  0  0  0  0  0
   -1.2500    5.1410   64.9540 C   0  0  0  0  0  0  0  0  0  0  0  0
   -1.3040    6.3570   65.9340 C   0  0  0  0  0  0  0  0  0  0  0  0
   -0.0590    7.2750   65.9650 C   0  0  0  0  0  0  0  0  0  0  0  0
   -0.4540    8.7390   65.8550 N   0  0  0  0  0  0  0  0  0  0  0  0
   -0.0910    9.6300   66.7760 C   0  0  0  0  0  0  0  0  0  0  0  0
    0.6570    9.2550   67.8790 N   0  0  0  0  0  0  0  0  0  0  0  0
   -0.4870   10.9260   66.5840 N   0  0  0  0  0  0  0  0  0  0  0  0
    0.1980    2.0060   65.7130 N   0  0  0  0  0  0  0  0  0  0  0  0
   -1.1440    1.6190   65.5870 O   0  0  0  0  0  0  0  0  0  0  0  0
    1.0420   -1.1130   64.2570 N   0  0  0  0  0  0  0  0  0  0  0  0
    1.3260    1.0040   65.7120 C   0  0  0  0  0  0  0  0  0  0  0  0
    0.8950   -0.4860   65.6260 C   0  0  0  0  0  0  0  0  0  0  0  0
  2  1  1  0
  3  1  2  0
 12  1  1  0
  5  4  1  0
  6  5  1  0
  7  5  1  0
 14  6  1  0
  8  7  1  0
  9  8  1  0
 10  9  1  0
 11 10  1  0
 12 11  1  0
 13 11  2  0
 15 14  1  0
 17 14  1  0
 18 16  1  0
 18 17  1  0
M  CHG  2   1   1   2  -1
A    1
NO
A    2
O2
A    3
O3
A    4
N
A    5
CA
A    6
C
A    7
CB
A    8
CG
A    9
CD
A   10
NE
A   11
CZ
A   12
NH1
A   13
NH2
A   14
NA
A   15
O1'
A   16
NB
A   17
C1'
A   18
C2'
M  END
>  <Id>  (3) 
2HX2_3HX_B_793

>  <ChainId>  (3) 
B

>  <AsymId>  (3) 
P

>  <SeqNum>  (3) 
793

>  <Name>  (3) 
(4S)-N-{4-AMINO-5-[(2-AMINOETHYL)(HYDROXYAMINO]-PENTYL}-N'-NITROGUANIDINE

>  <SystematicName>  (3) 
1-[(4S)-4-amino-5-(2-aminoethyl-hydroxy-amino)pentyl]-3-nitro-guanidine

>  <Synonyms>  (3) 


>  <Type>  (3) 
NON-POLYMER

>  <Formula>  (3) 
C8 H21 N7 O3

>  <ObservedFormula>  (3) 
C8 N7 O3

>  <MolecularWeight>  (3) 
263.297

>  <ModifiedDate>  (3) 
2011-06-04

>  <Parent>  (3) 


>  <OneLetterCode>  (3) 


>  <SubcomponentList>  (3) 


>  <AmbiguousFlag>  (3) 


>  <InsertionCode>  (3) 


>  <InstanceId>  (3) 
2HX2_3HX_B_793

>  <ChemCompId>  (3) 
3HX

>  <PdbId>  (3) 
2HX2

>  <ResidueNumber>  (3) 
793

>  <InChI>  (3) 
InChI=1S/C8H21N7O3/c9-3-5-14(16)6-7(10)2-1-4-12-8(11)13-15(17)18/h7,16H,1-6,9-10H2,(H3,11,12,13)/t7-/m0/s1

>  <InChIKey>  (3) 
HUOGRSGQHCPAGO-ZETCQYMHSA-N

>  <SMILES>  (3) 
[H]/N=C(/NCCC[C@@H](CN(CCN)O)N)\N[N+](=O)[O-]

>  <MissingHeavyAtoms>  (3) 
0

>  <Model>  (3) 
1

>  <AltIds>  (3) 


>  <pKI>  (3) 
4.14

>  <ChemblID>  (3) 
CHEMBL375949

>  <standardized_canonical_smiles>  (3) 
NCCN(O)C[C@@H](N)CCCNC(N)=N[N+](=O)[O-]

$$$$
1ZZS_DP9_B_800
     RDKit          3D

 23 23  0  0  0  0  0  0  0  0999 V2000
   -0.2480   11.2600   66.6740 N   0  0  0  0  0  0  0  0  0  0  0  0
    0.1390   10.0060   66.9560 C   0  0  0  0  0  0  0  0  0  0  0  0
    0.7520    9.6960   68.0930 N   0  0  0  0  0  0  0  0  0  0  0  0
    0.8160   10.3800   69.2510 N   0  0  0  0  0  0  0  0  0  0  0  0
    1.2120    9.7610   70.2990 O   0  0  0  0  0  0  0  0  0  0  0  0
    0.4960   11.6150   69.3410 O   0  0  0  0  0  0  0  0  0  0  0  0
   -0.1260    9.0730   66.0470 N   0  0  0  0  0  0  0  0  0  0  0  0
    0.1480    7.6380   66.0590 C   0  0  0  0  0  0  0  0  0  0  0  0
   -1.1220    6.9000   66.5180 C   0  0  0  0  0  0  0  0  0  0  0  0
   -2.3620    7.2380   65.6550 C   0  0  0  0  0  0  0  0  0  0  0  0
   -2.2970    6.6690   64.2000 C   0  0  0  0  0  0  0  0  0  0  0  0
   -3.1410    7.5480   63.3440 N   0  0  0  0  0  0  0  0  0  0  0  0
   -2.8020    5.2220   64.0930 C   0  0  0  0  0  0  0  0  0  0  0  0
   -4.0090    5.0120   63.9470 O   0  0  0  0  0  0  0  0  0  0  0  0
   -1.8700    4.2610   64.1690 N   0  0  0  0  0  0  0  0  0  0  0  0
   -2.0450    2.7750   63.8550 C   0  0  0  0  0  0  0  0  0  0  0  0
   -2.3750    2.4540   62.3700 C   0  0  0  0  0  0  0  0  0  0  0  0
   -1.0140    2.4290   61.7630 N   0  0  0  0  0  0  0  0  0  0  0  0
    0.0540    2.1550   62.7660 C   0  0  0  0  0  0  0  0  0  0  0  0
    0.7380    0.8620   62.2750 C   0  0  0  0  0  0  0  0  0  0  0  0
    0.0840   -0.0840   61.8190 O   0  0  0  0  0  0  0  0  0  0  0  0
    2.0610    0.7200   62.3210 N   0  0  0  0  0  0  0  0  0  0  0  0
   -0.7510    1.9730   64.0690 C   0  0  0  0  0  0  0  0  0  0  0  0
  2  1  2  0
  3  2  1  0
  7  2  1  0
  4  3  1  0
  5  4  1  0
  6  4  2  0
  8  7  1  0
  9  8  1  0
 10  9  1  0
 11 10  1  0
 12 11  1  0
 13 11  1  0
 14 13  2  0
 15 13  1  0
 16 15  1  0
 17 16  1  0
 23 16  1  0
 18 17  1  0
 19 18  1  0
 20 19  1  0
 23 19  1  0
 21 20  2  0
 22 20  1  0
M  CHG  2   4   1   5  -1
A    1
NH2
A    2
CZ
A    3
NH1
A    4
NO
A    5
O2
A    6
O3
A    7
NE
A    8
CD
A    9
CG
A   10
CB
A   11
CA
A   12
N
A   13
C
A   14
O
A   15
N2'
A   16
CG'
A   17
CD'
A   18
N'
A   19
CA'
A   20
C'
A   21
O'
A   22
N1'
A   23
CB'
M  END
>  <Id>  (4) 
1ZZS_DP9_B_800

>  <ChainId>  (4) 
B

>  <AsymId>  (4) 
M

>  <SeqNum>  (4) 
800

>  <Name>  (4) 
L-N(OMEGA)-NITROARGININE-(4R)-AMINO-L-PROLINE AMIDE

>  <SystematicName>  (4) 
(2S,4R)-4-[[(2S)-2-amino-5-[(N-nitrocarbamimidoyl)amino]pentanoyl]amino]pyrrolidine-2-carboxamide

>  <Synonyms>  (4) 


>  <Type>  (4) 
NON-POLYMER

>  <Formula>  (4) 
C11 H22 N8 O4

>  <ObservedFormula>  (4) 
C11 N8 O4

>  <MolecularWeight>  (4) 
330.344

>  <ModifiedDate>  (4) 
2011-06-04

>  <Parent>  (4) 


>  <OneLetterCode>  (4) 


>  <SubcomponentList>  (4) 


>  <AmbiguousFlag>  (4) 
N

>  <InsertionCode>  (4) 


>  <InstanceId>  (4) 
1ZZS_DP9_B_800

>  <ChemCompId>  (4) 
DP9

>  <PdbId>  (4) 
1ZZS

>  <ResidueNumber>  (4) 
800

>  <InChI>  (4) 
InChI=1S/C11H22N8O4/c12-7(2-1-3-15-11(14)18-19(22)23)10(21)17-6-4-8(9(13)20)16-5-6/h6-8,16H,1-5,12H2,(H2,13,20)(H,17,21)(H3,14,15,18)/t6-,7+,8+/m1/s1

>  <InChIKey>  (4) 
IUFRDGFKAVLPFZ-CSMHCCOUSA-N

>  <SMILES>  (4) 
C1[C@H](CN[C@@H]1C(=O)N)NC(=O)[C@H](CCCNC(=N)N[N+](=O)[O-])N

>  <MissingHeavyAtoms>  (4) 
0

>  <Model>  (4) 
1

>  <AltIds>  (4) 


>  <pKI>  (4) 
4.14

>  <ChemblID>  (4) 
CHEMBL228077

>  <standardized_canonical_smiles>  (4) 
NC(=O)[C@@H]1C[C@@H](NC(=O)[C@@H](N)CCCNC(N)=N[N+](=O)[O-])CN1

$$$$
1ZZT_DP9_B_800
     RDKit          3D

 23 23  0  0  0  0  0  0  0  0999 V2000
   -0.4590   10.9250   66.1850 N   0  0  0  0  0  0  0  0  0  0  0  0
   -0.0600    9.6760   66.4860 C   0  0  0  0  0  0  0  0  0  0  0  0
    0.5760    9.3920   67.6150 N   0  0  0  0  0  0  0  0  0  0  0  0
    0.7120   10.1260   68.7290 N   0  0  0  0  0  0  0  0  0  0  0  0
    1.1880    9.5540   69.7510 O   0  0  0  0  0  0  0  0  0  0  0  0
    0.3910   11.3780   68.8000 O   0  0  0  0  0  0  0  0  0  0  0  0
   -0.3310    8.7340   65.6110 N   0  0  0  0  0  0  0  0  0  0  0  0
   -0.0390    7.3060   65.6430 C   0  0  0  0  0  0  0  0  0  0  0  0
   -1.3300    6.5450   65.9690 C   0  0  0  0  0  0  0  0  0  0  0  0
   -2.4900    6.9300   65.0290 C   0  0  0  0  0  0  0  0  0  0  0  0
   -2.3390    6.3820   63.5880 C   0  0  0  0  0  0  0  0  0  0  0  0
   -3.0700    7.2930   62.7030 N   0  0  0  0  0  0  0  0  0  0  0  0
   -2.8830    4.9680   63.4290 C   0  0  0  0  0  0  0  0  0  0  0  0
   -4.1010    4.7800   63.2260 O   0  0  0  0  0  0  0  0  0  0  0  0
   -1.9700    3.9910   63.5050 N   0  0  0  0  0  0  0  0  0  0  0  0
   -2.1810    2.5300   63.1740 C   0  0  0  0  0  0  0  0  0  0  0  0
   -2.5540    2.2590   61.6910 C   0  0  0  0  0  0  0  0  0  0  0  0
   -1.2050    2.2410   61.0570 N   0  0  0  0  0  0  0  0  0  0  0  0
   -0.1160    1.9310   62.0320 C   0  0  0  0  0  0  0  0  0  0  0  0
    0.5490    0.6630   61.4800 C   0  0  0  0  0  0  0  0  0  0  0  0
   -0.0580   -0.1180   60.7550 O   0  0  0  0  0  0  0  0  0  0  0  0
    1.8120    0.3730   61.7530 N   0  0  0  0  0  0  0  0  0  0  0  0
   -0.8950    1.7120   63.3570 C   0  0  0  0  0  0  0  0  0  0  0  0
  2  1  2  0
  3  2  1  0
  7  2  1  0
  4  3  1  0
  5  4  1  0
  6  4  2  0
  8  7  1  0
  9  8  1  0
 10  9  1  0
 11 10  1  0
 12 11  1  0
 13 11  1  0
 14 13  2  0
 15 13  1  0
 16 15  1  0
 17 16  1  0
 23 16  1  0
 18 17  1  0
 19 18  1  0
 20 19  1  0
 23 19  1  0
 21 20  2  0
 22 20  1  0
M  CHG  2   4   1   5  -1
A    1
NH2
A    2
CZ
A    3
NH1
A    4
NO
A    5
O2
A    6
O3
A    7
NE
A    8
CD
A    9
CG
A   10
CB
A   11
CA
A   12
N
A   13
C
A   14
O
A   15
N2'
A   16
CG'
A   17
CD'
A   18
N'
A   19
CA'
A   20
C'
A   21
O'
A   22
N1'
A   23
CB'
M  END
>  <Id>  (5) 
1ZZT_DP9_B_800

>  <ChainId>  (5) 
B

>  <AsymId>  (5) 
K

>  <SeqNum>  (5) 
800

>  <Name>  (5) 
L-N(OMEGA)-NITROARGININE-(4R)-AMINO-L-PROLINE AMIDE

>  <SystematicName>  (5) 
(2S,4R)-4-[[(2S)-2-amino-5-[(N-nitrocarbamimidoyl)amino]pentanoyl]amino]pyrrolidine-2-carboxamide

>  <Synonyms>  (5) 


>  <Type>  (5) 
NON-POLYMER

>  <Formula>  (5) 
C11 H22 N8 O4

>  <ObservedFormula>  (5) 
C11 N8 O4

>  <MolecularWeight>  (5) 
330.344

>  <ModifiedDate>  (5) 
2011-06-04

>  <Parent>  (5) 


>  <OneLetterCode>  (5) 


>  <SubcomponentList>  (5) 


>  <AmbiguousFlag>  (5) 
N

>  <InsertionCode>  (5) 


>  <InstanceId>  (5) 
1ZZT_DP9_B_800

>  <ChemCompId>  (5) 
DP9

>  <PdbId>  (5) 
1ZZT

>  <ResidueNumber>  (5) 
800

>  <InChI>  (5) 
InChI=1S/C11H22N8O4/c12-7(2-1-3-15-11(14)18-19(22)23)10(21)17-6-4-8(9(13)20)16-5-6/h6-8,16H,1-5,12H2,(H2,13,20)(H,17,21)(H3,14,15,18)/t6-,7+,8+/m1/s1

>  <InChIKey>  (5) 
IUFRDGFKAVLPFZ-CSMHCCOUSA-N

>  <SMILES>  (5) 
C1[C@H](CN[C@@H]1C(=O)N)NC(=O)[C@H](CCCNC(=N)N[N+](=O)[O-])N

>  <MissingHeavyAtoms>  (5) 
0

>  <Model>  (5) 
1

>  <AltIds>  (5) 


>  <pKI>  (5) 
4.14

>  <ChemblID>  (5) 
CHEMBL228077

>  <standardized_canonical_smiles>  (5) 
NC(=O)[C@@H]1C[C@@H](NC(=O)[C@@H](N)CCCNC(N)=N[N+](=O)[O-])CN1

$$$$
1P6N_DP9_B_800
     RDKit          3D

 23 23  0  0  0  0  0  0  0  0999 V2000
    0.0680   10.9340   66.6240 N   0  0  0  0  0  0  0  0  0  0  0  0
    0.2270    9.6430   66.9190 C   0  0  0  0  0  0  0  0  0  0  0  0
    0.8120    9.2260   68.0300 N   0  0  0  0  0  0  0  0  0  0  0  0
    0.8690    9.7260   69.2660 N   0  0  0  0  0  0  0  0  0  0  0  0
    1.1850    8.9270   70.2000 O   0  0  0  0  0  0  0  0  0  0  0  0
    0.6300   10.9470   69.5540 O   0  0  0  0  0  0  0  0  0  0  0  0
   -0.2140    8.7770   66.0430 N   0  0  0  0  0  0  0  0  0  0  0  0
   -0.1840    7.3170   66.0640 C   0  0  0  0  0  0  0  0  0  0  0  0
   -1.5910    6.8130   65.7980 C   0  0  0  0  0  0  0  0  0  0  0  0
   -1.5970    5.3560   65.3270 C   0  0  0  0  0  0  0  0  0  0  0  0
   -2.3570    5.0860   63.9940 C   0  0  0  0  0  0  0  0  0  0  0  0
   -3.5820    5.9590   63.9480 N   0  0  0  0  0  0  0  0  0  0  0  0
   -2.7070    3.5840   63.8430 C   0  0  0  0  0  0  0  0  0  0  0  0
   -3.8740    3.2050   63.6850 O   0  0  0  0  0  0  0  0  0  0  0  0
   -1.6610    2.7580   63.8990 N   0  0  0  0  0  0  0  0  0  0  0  0
   -1.6260    1.3050   63.5150 C   0  0  0  0  0  0  0  0  0  0  0  0
   -1.9210    1.0490   62.0350 C   0  0  0  0  0  0  0  0  0  0  0  0
   -0.5850    1.2310   61.4310 N   0  0  0  0  0  0  0  0  0  0  0  0
    0.5160    1.0170   62.3900 C   0  0  0  0  0  0  0  0  0  0  0  0
    1.2430   -0.1990   61.7720 C   0  0  0  0  0  0  0  0  0  0  0  0
    0.6220   -1.1120   61.2320 O   0  0  0  0  0  0  0  0  0  0  0  0
    2.5620   -0.3040   61.7800 N   0  0  0  0  0  0  0  0  0  0  0  0
   -0.2350    0.6810   63.6940 C   0  0  0  0  0  0  0  0  0  0  0  0
  2  1  2  0
  3  2  1  0
  7  2  1  0
  4  3  1  0
  5  4  1  0
  6  4  2  0
  8  7  1  0
  9  8  1  0
 10  9  1  0
 11 10  1  0
 12 11  1  0
 13 11  1  0
 14 13  2  0
 15 13  1  0
 16 15  1  0
 17 16  1  0
 23 16  1  0
 18 17  1  0
 19 18  1  0
 20 19  1  0
 23 19  1  0
 21 20  2  0
 22 20  1  0
M  CHG  2   4   1   5  -1
A    1
NH2
A    2
CZ
A    3
NH1
A    4
NO
A    5
O2
A    6
O3
A    7
NE
A    8
CD
A    9
CG
A   10
CB
A   11
CA
A   12
N
A   13
C
A   14
O
A   15
N2'
A   16
CG'
A   17
CD'
A   18
N'
A   19
CA'
A   20
C'
A   21
O'
A   22
N1'
A   23
CB'
M  END
>  <Id>  (6) 
1P6N_DP9_B_800

>  <ChainId>  (6) 
B

>  <AsymId>  (6) 
M

>  <SeqNum>  (6) 
800

>  <Name>  (6) 
L-N(OMEGA)-NITROARGININE-(4R)-AMINO-L-PROLINE AMIDE

>  <SystematicName>  (6) 
(2S,4R)-4-[[(2S)-2-amino-5-[(N-nitrocarbamimidoyl)amino]pentanoyl]amino]pyrrolidine-2-carboxamide

>  <Synonyms>  (6) 


>  <Type>  (6) 
NON-POLYMER

>  <Formula>  (6) 
C11 H22 N8 O4

>  <ObservedFormula>  (6) 
C11 N8 O4

>  <MolecularWeight>  (6) 
330.344

>  <ModifiedDate>  (6) 
2011-06-04

>  <Parent>  (6) 


>  <OneLetterCode>  (6) 


>  <SubcomponentList>  (6) 


>  <AmbiguousFlag>  (6) 
N

>  <InsertionCode>  (6) 


>  <InstanceId>  (6) 
1P6N_DP9_B_800

>  <ChemCompId>  (6) 
DP9

>  <PdbId>  (6) 
1P6N

>  <ResidueNumber>  (6) 
800

>  <InChI>  (6) 
InChI=1S/C11H22N8O4/c12-7(2-1-3-15-11(14)18-19(22)23)10(21)17-6-4-8(9(13)20)16-5-6/h6-8,16H,1-5,12H2,(H2,13,20)(H,17,21)(H3,14,15,18)/t6-,7+,8+/m1/s1

>  <InChIKey>  (6) 
IUFRDGFKAVLPFZ-CSMHCCOUSA-N

>  <SMILES>  (6) 
C1[C@H](CN[C@@H]1C(=O)N)NC(=O)[C@H](CCCNC(=N)N[N+](=O)[O-])N

>  <MissingHeavyAtoms>  (6) 
0

>  <Model>  (6) 
1

>  <AltIds>  (6) 


>  <pKI>  (6) 
4.14

>  <ChemblID>  (6) 
CHEMBL228077

>  <standardized_canonical_smiles>  (6) 
NC(=O)[C@@H]1C[C@@H](NC(=O)[C@@H](N)CCCNC(N)=N[N+](=O)[O-])CN1

$$$$
1P6L_DP1_B_791
     RDKit          3D

 22 21  0  0  0  0  0  0  0  0999 V2000
   -0.2020   10.6310   66.6950 N   0  0  0  0  0  0  0  0  0  0  0  0
   -0.0320    9.3910   66.9970 C   0  0  0  0  0  0  0  0  0  0  0  0
    0.5560    9.0330   68.0660 N   0  0  0  0  0  0  0  0  0  0  0  0
    0.7370    9.8000   69.1990 N   0  0  0  0  0  0  0  0  0  0  0  0
    1.3390    9.3370   70.1280 O   0  0  0  0  0  0  0  0  0  0  0  0
    0.3000   10.9320   69.2750 O   0  0  0  0  0  0  0  0  0  0  0  0
   -0.4960    8.5000   66.1470 N   0  0  0  0  0  0  0  0  0  0  0  0
   -0.4130    7.0340   66.2930 C   0  0  0  0  0  0  0  0  0  0  0  0
   -1.2310    6.4350   65.1600 C   0  0  0  0  0  0  0  0  0  0  0  0
   -1.3690    4.9170   65.2790 C   0  0  0  0  0  0  0  0  0  0  0  0
   -2.1560    4.3380   64.1060 C   0  0  0  0  0  0  0  0  0  0  0  0
   -3.5020    4.9050   64.1490 N   0  0  0  0  0  0  0  0  0  0  0  0
   -2.2180    2.8120   64.1350 C   0  0  0  0  0  0  0  0  0  0  0  0
   -3.3000    2.2270   64.1840 O   0  0  0  0  0  0  0  0  0  0  0  0
   -1.0570    2.1690   64.0900 N   0  0  0  0  0  0  0  0  0  0  0  0
   -0.9690    0.7090   64.0880 C   0  0  0  0  0  0  0  0  0  0  0  0
   -0.8890    0.1070   65.5070 C   0  0  0  0  0  0  0  0  0  0  0  0
   -0.8940    0.8110   66.5160 O   0  0  0  0  0  0  0  0  0  0  0  0
   -0.8450   -1.2280   65.5730 N   0  0  0  0  0  0  0  0  0  0  0  0
    0.2170    0.3270   63.1730 C   0  0  0  0  0  0  0  0  0  0  0  0
   -0.1500    0.5560   61.6830 C   0  0  0  0  0  0  0  0  0  0  0  0
    0.9670    0.1880   60.7970 N   0  0  0  0  0  0  0  0  0  0  0  0
  2  1  2  0
  3  2  1  0
  7  2  1  0
  4  3  1  0
  5  4  1  0
  6  4  2  0
  8  7  1  0
  9  8  1  0
 10  9  1  0
 11 10  1  0
 12 11  1  0
 13 11  1  0
 14 13  2  0
 15 13  1  0
 16 15  1  0
 17 16  1  0
 20 16  1  0
 18 17  2  0
 19 17  1  0
 21 20  1  0
 22 21  1  0
M  CHG  2   4   1   5  -1
A    1
NH2
A    2
CZ
A    3
NH1
A    4
NO
A    5
O2
A    6
O3
A    7
NE
A    8
CD
A    9
CG
A   10
CB
A   11
CA
A   12
N
A   13
C
A   14
O
A   15
N'
A   16
CA'
A   17
C'
A   18
O'
A   19
N1'
A   20
CB'
A   21
C1
A   22
N1
M  END
>  <Id>  (7) 
1P6L_DP1_B_791

>  <ChainId>  (7) 
B

>  <AsymId>  (7) 
N

>  <SeqNum>  (7) 
791

>  <Name>  (7) 
L-N(OMEGA)-NITROARGININE-2,4-L-DIAMINOBUTYRIC AMIDE

>  <SystematicName>  (7) 
(2S)-2-amino-N-[(2S)-1,4-diamino-1-oxo-butan-2-yl]-5-[(N-nitrocarbamimidoyl)amino]pentanamide

>  <Synonyms>  (7) 


>  <Type>  (7) 
NON-POLYMER

>  <Formula>  (7) 
C10 H22 N8 O4

>  <ObservedFormula>  (7) 
C10 N8 O4

>  <MolecularWeight>  (7) 
318.333

>  <ModifiedDate>  (7) 
2011-06-04

>  <Parent>  (7) 
ARG

>  <OneLetterCode>  (7) 


>  <SubcomponentList>  (7) 


>  <AmbiguousFlag>  (7) 
N

>  <InsertionCode>  (7) 


>  <InstanceId>  (7) 
1P6L_DP1_B_791

>  <ChemCompId>  (7) 
DP1

>  <PdbId>  (7) 
1P6L

>  <ResidueNumber>  (7) 
791

>  <InChI>  (7) 
InChI=1S/C10H22N8O4/c11-4-3-7(8(13)19)16-9(20)6(12)2-1-5-15-10(14)17-18(21)22/h6-7H,1-5,11-12H2,(H2,13,19)(H,16,20)(H3,14,15,17)/t6-,7-/m0/s1

>  <InChIKey>  (7) 
KUZKVXUOMSVPOA-BQBZGAKWSA-N

>  <SMILES>  (7) 
C(C[C@@H](C(=O)N[C@@H](CCN)C(=O)N)N)CNC(=N)N[N+](=O)[O-]

>  <MissingHeavyAtoms>  (7) 
0

>  <Model>  (7) 
1

>  <AltIds>  (7) 


>  <pKI>  (7) 
3.7

>  <ChemblID>  (7) 
CHEMBL481413

>  <standardized_canonical_smiles>  (7) 
N=C(NCCC[C@H](N)C(=O)N[C@@H](CCN)C(N)=O)N[N+](=O)[O-]

$$$$
1Q2O_DP1_B_791
     RDKit          3D

 22 21  0  0  0  0  0  0  0  0999 V2000
   -0.0520   11.2970   66.9230 N   0  0  0  0  0  0  0  0  0  0  0  0
    0.2150   10.0560   67.1850 C   0  0  0  0  0  0  0  0  0  0  0  0
    0.7210    9.6870   68.3050 N   0  0  0  0  0  0  0  0  0  0  0  0
    0.9720   10.4810   69.4120 N   0  0  0  0  0  0  0  0  0  0  0  0
    1.4550    9.9760   70.4010 O   0  0  0  0  0  0  0  0  0  0  0  0
    0.7190   11.6660   69.4040 O   0  0  0  0  0  0  0  0  0  0  0  0
   -0.0520    9.1620   66.2360 N   0  0  0  0  0  0  0  0  0  0  0  0
    0.1850    7.6900   66.3320 C   0  0  0  0  0  0  0  0  0  0  0  0
   -1.1110    7.0110   66.8260 C   0  0  0  0  0  0  0  0  0  0  0  0
   -2.2910    7.2110   65.8510 C   0  0  0  0  0  0  0  0  0  0  0  0
   -2.0880    6.5460   64.4780 C   0  0  0  0  0  0  0  0  0  0  0  0
   -2.7720    7.3690   63.4830 N   0  0  0  0  0  0  0  0  0  0  0  0
   -2.6250    5.1050   64.4440 C   0  0  0  0  0  0  0  0  0  0  0  0
   -3.7960    4.8770   64.1490 O   0  0  0  0  0  0  0  0  0  0  0  0
   -1.7450    4.1420   64.7470 N   0  0  0  0  0  0  0  0  0  0  0  0
   -2.0540    2.6930   64.7610 C   0  0  0  0  0  0  0  0  0  0  0  0
   -2.4770    2.2010   66.1720 C   0  0  0  0  0  0  0  0  0  0  0  0
   -3.6310    1.8580   66.4280 O   0  0  0  0  0  0  0  0  0  0  0  0
   -1.5100    2.1530   67.0890 N   0  0  0  0  0  0  0  0  0  0  0  0
   -0.7830    1.9650   64.2270 C   0  0  0  0  0  0  0  0  0  0  0  0
   -0.8330    0.4230   64.3850 C   0  0  0  0  0  0  0  0  0  0  0  0
    0.4060   -0.1830   63.8670 N   0  0  0  0  0  0  0  0  0  0  0  0
  2  1  2  0
  3  2  1  0
  7  2  1  0
  4  3  1  0
  5  4  1  0
  6  4  2  0
  8  7  1  0
  9  8  1  0
 10  9  1  0
 11 10  1  0
 12 11  1  0
 13 11  1  0
 14 13  2  0
 15 13  1  0
 16 15  1  0
 17 16  1  0
 20 16  1  0
 18 17  2  0
 19 17  1  0
 21 20  1  0
 22 21  1  0
M  CHG  2   4   1   5  -1
A    1
NH2
A    2
CZ
A    3
NH1
A    4
NO
A    5
O2
A    6
O3
A    7
NE
A    8
CD
A    9
CG
A   10
CB
A   11
CA
A   12
N
A   13
C
A   14
O
A   15
N'
A   16
CA'
A   17
C'
A   18
O'
A   19
N1'
A   20
CB'
A   21
C1
A   22
N1
M  END
>  <Id>  (8) 
1Q2O_DP1_B_791

>  <ChainId>  (8) 
B

>  <AsymId>  (8) 
N

>  <SeqNum>  (8) 
791

>  <Name>  (8) 
L-N(OMEGA)-NITROARGININE-2,4-L-DIAMINOBUTYRIC AMIDE

>  <SystematicName>  (8) 
(2S)-2-amino-N-[(2S)-1,4-diamino-1-oxo-butan-2-yl]-5-[(N-nitrocarbamimidoyl)amino]pentanamide

>  <Synonyms>  (8) 


>  <Type>  (8) 
NON-POLYMER

>  <Formula>  (8) 
C10 H22 N8 O4

>  <ObservedFormula>  (8) 
C10 N8 O4

>  <MolecularWeight>  (8) 
318.333

>  <ModifiedDate>  (8) 
2011-06-04

>  <Parent>  (8) 
ARG

>  <OneLetterCode>  (8) 


>  <SubcomponentList>  (8) 


>  <AmbiguousFlag>  (8) 
N

>  <InsertionCode>  (8) 


>  <InstanceId>  (8) 
1Q2O_DP1_B_791

>  <ChemCompId>  (8) 
DP1

>  <PdbId>  (8) 
1Q2O

>  <ResidueNumber>  (8) 
791

>  <InChI>  (8) 
InChI=1S/C10H22N8O4/c11-4-3-7(8(13)19)16-9(20)6(12)2-1-5-15-10(14)17-18(21)22/h6-7H,1-5,11-12H2,(H2,13,19)(H,16,20)(H3,14,15,17)/t6-,7-/m0/s1

>  <InChIKey>  (8) 
KUZKVXUOMSVPOA-BQBZGAKWSA-N

>  <SMILES>  (8) 
C(C[C@@H](C(=O)N[C@@H](CCN)C(=O)N)N)CNC(=N)N[N+](=O)[O-]

>  <MissingHeavyAtoms>  (8) 
0

>  <Model>  (8) 
1

>  <AltIds>  (8) 


>  <pKI>  (8) 
3.7

>  <ChemblID>  (8) 
CHEMBL481413

>  <standardized_canonical_smiles>  (8) 
N=C(NCCC[C@H](N)C(=O)N[C@@H](CCN)C(N)=O)N[N+](=O)[O-]

$$$$
1P6M_DP3_B_794
     RDKit          3D

 17 16  0  0  0  0  0  0  0  0999 V2000
    0.6400    0.3730   60.5130 N   0  0  0  0  0  0  0  0  0  0  0  0
    0.2870    1.4670   61.4820 C   0  0  0  0  0  0  0  0  0  0  0  0
    0.1080    0.9810   62.9580 C   0  0  0  0  0  0  0  0  0  0  0  0
    0.9110    1.7370   63.9940 N   0  0  0  0  0  0  0  0  0  0  0  0
    0.5520    3.1780   64.2260 C   0  0  0  0  0  0  0  0  0  0  0  0
   -0.9500    3.4340   64.5700 C   0  0  0  0  0  0  0  0  0  0  0  0
   -1.2790    2.7180   65.8330 N   0  0  0  0  0  0  0  0  0  0  0  0
   -1.3260    4.9510   64.7870 C   0  0  0  0  0  0  0  0  0  0  0  0
   -0.9250    5.5740   66.1490 C   0  0  0  0  0  0  0  0  0  0  0  0
    0.2980    6.4930   66.0690 C   0  0  0  0  0  0  0  0  0  0  0  0
   -0.0840    7.9430   65.9180 N   0  0  0  0  0  0  0  0  0  0  0  0
    0.1170    8.9450   66.7680 C   0  0  0  0  0  0  0  0  0  0  0  0
   -0.3330   10.1570   66.3690 N   0  0  0  0  0  0  0  0  0  0  0  0
    0.7410    8.7170   67.9600 N   0  0  0  0  0  0  0  0  0  0  0  0
    0.7970    9.6730   68.9700 N   0  0  0  0  0  0  0  0  0  0  0  0
    1.3860    9.3730   70.0450 O   0  0  0  0  0  0  0  0  0  0  0  0
    0.2810   10.8380   68.8700 O   0  0  0  0  0  0  0  0  0  0  0  0
  2  1  1  0
  3  2  1  0
  4  3  1  0
  5  4  1  0
  6  5  1  0
  7  6  1  0
  8  6  1  0
  9  8  1  0
 10  9  1  0
 11 10  1  0
 12 11  1  0
 13 12  2  0
 14 12  1  0
 15 14  1  0
 16 15  2  0
 17 15  1  0
M  CHG  2  15   1  17  -1
A    1
N2'
A    2
C2'
A    3
C1'
A    4
N1'
A    5
C
A    6
CA
A    7
N
A    8
CB
A    9
CG
A   10
CD
A   11
NE
A   12
CZ
A   13
NH2
A   14
NH1
A   15
NO
A   16
O2
A   17
O3
M  END
>  <Id>  (9) 
1P6M_DP3_B_794

>  <ChainId>  (9) 
B

>  <AsymId>  (9) 
N

>  <SeqNum>  (9) 
794

>  <Name>  (9) 
N-{(4S)-4-AMINO-5-[(2-AMINOETHYL)AMINO]PENTYL}-N'-NITROGUANIDINE

>  <SystematicName>  (9) 
1-[(4S)-4-amino-5-(2-aminoethylamino)pentyl]-3-nitro-guanidine

>  <Synonyms>  (9) 


>  <Type>  (9) 
NON-POLYMER

>  <Formula>  (9) 
C8 H21 N7 O2

>  <ObservedFormula>  (9) 
C8 N7 O2

>  <MolecularWeight>  (9) 
247.298

>  <ModifiedDate>  (9) 
2011-06-04

>  <Parent>  (9) 


>  <OneLetterCode>  (9) 


>  <SubcomponentList>  (9) 


>  <AmbiguousFlag>  (9) 
N

>  <InsertionCode>  (9) 


>  <InstanceId>  (9) 
1P6M_DP3_B_794

>  <ChemCompId>  (9) 
DP3

>  <PdbId>  (9) 
1P6M

>  <ResidueNumber>  (9) 
794

>  <InChI>  (9) 
InChI=1S/C8H21N7O2/c9-3-5-12-6-7(10)2-1-4-13-8(11)14-15(16)17/h7,12H,1-6,9-10H2,(H3,11,13,14)/t7-/m0/s1

>  <InChIKey>  (9) 
RMSWBHUVFNFNIZ-ZETCQYMHSA-N

>  <SMILES>  (9) 
C(C[C@@H](CNCCN)N)CNC(=N)N[N+](=O)[O-]

>  <MissingHeavyAtoms>  (9) 
0

>  <Model>  (9) 
1

>  <AltIds>  (9) 


>  <pKI>  (9) 
3.5

>  <ChemblID>  (9) 
CHEMBL481033

>  <standardized_canonical_smiles>  (9) 
N=C(NCCC[C@H](N)CNCCN)N[N+](=O)[O-]

$$$$
3DQS_JI3_B_800
     RDKit          3D

 26 28  0  0  0  0  0  0  0  0999 V2000
   -0.3760   -1.4290   60.8170 C   0  0  0  0  0  0  0  0  0  0  0  0
   -0.6110   -2.8330   60.8290 C   0  0  0  0  0  0  0  0  0  0  0  0
    0.3120   -3.6980   61.4740 C   0  0  0  0  0  0  0  0  0  0  0  0
    0.0140   -5.4430   61.4960 Cl  0  0  0  0  0  0  0  0  0  0  0  0
    1.4760   -3.1590   62.1090 C   0  0  0  0  0  0  0  0  0  0  0  0
    1.7130   -1.7500   62.0980 C   0  0  0  0  0  0  0  0  0  0  0  0
    0.7830   -0.8900   61.4510 C   0  0  0  0  0  0  0  0  0  0  0  0
   -0.1470   10.4660   66.9120 C   0  0  0  0  0  0  0  0  0  0  0  0
   -0.6200   11.6430   66.5010 N   0  0  0  0  0  0  0  0  0  0  0  0
    0.4690   10.3150   68.2300 C   0  0  0  0  0  0  0  0  0  0  0  0
    0.9660    8.9940   68.6090 C   0  0  0  0  0  0  0  0  0  0  0  0
    0.8550    7.8550   67.7080 C   0  0  0  0  0  0  0  0  0  0  0  0
    0.2350    8.0890   66.4250 C   0  0  0  0  0  0  0  0  0  0  0  0
   -0.2320    9.3520   66.0820 N   0  0  0  0  0  0  0  0  0  0  0  0
   -2.9500    6.8820   64.2550 N   0  0  0  0  0  0  0  0  0  0  0  0
   -2.2120    5.7550   63.5890 C   0  0  0  0  0  0  0  0  0  0  0  0
   -1.5510    4.9880   64.7860 C   0  0  0  0  0  0  0  0  0  0  0  0
   -1.2370    6.0860   65.8120 C   0  0  0  0  0  0  0  0  0  0  0  0
   -2.5320    6.9530   65.6910 C   0  0  0  0  0  0  0  0  0  0  0  0
    0.0560    6.9390   65.4290 C   0  0  0  0  0  0  0  0  0  0  0  0
    1.5990    8.7810   69.9720 C   0  0  0  0  0  0  0  0  0  0  0  0
   -0.3440    4.3170   64.3090 N   0  0  0  0  0  0  0  0  0  0  0  0
   -0.4610    2.8630   64.0130 C   0  0  0  0  0  0  0  0  0  0  0  0
    0.5030    2.4700   62.9170 C   0  0  0  0  0  0  0  0  0  0  0  0
   -0.0350    1.2560   62.2610 N   0  0  0  0  0  0  0  0  0  0  0  0
    1.0160    0.6190   61.4380 C   0  0  0  0  0  0  0  0  0  0  0  0
  2  1  2  0
  7  1  1  0
  3  2  1  0
  4  3  1  0
  5  3  2  0
  6  5  1  0
  7  6  2  0
 26  7  1  0
  9  8  1  0
 10  8  2  0
 14  8  1  0
 11 10  1  0
 12 11  2  0
 21 11  1  0
 13 12  1  0
 14 13  2  0
 20 13  1  0
 16 15  1  0
 19 15  1  0
 17 16  1  0
 18 17  1  0
 22 17  1  0
 19 18  1  0
 20 18  1  0
 23 22  1  0
 24 23  1  0
 25 24  1  0
 26 25  1  0
A    1
C21
A    2
C22
A    3
C23
A    4
CL
A    5
C24
A    6
C25
A    7
C26
A    8
C6
A    9
N6
A   10
C5
A   11
C4
A   12
C3
A   13
C2
A   14
N1
A   15
N1'
A   16
C2'
A   17
C3'
A   18
C4'
A   19
C5'
A   20
C7
A   21
C8
A   22
N8
A   23
C9
A   24
C10
A   25
N11
A   26
C12
M  END
>  <Id>  (10) 
3DQS_JI3_B_800

>  <ChainId>  (10) 
B

>  <AsymId>  (10) 
N

>  <SeqNum>  (10) 
800

>  <Name>  (10) 
N-{(3S,4S)-4-[(6-AMINO-4-METHYLPYRIDIN-2-YL)METHYL]PYRROLIDIN-3-YL}-N'-(4-CHLOROBENZYL)ETHANE-1,2-DIAMINE

>  <SystematicName>  (10) 
N-[(3S,4S)-4-[(6-amino-4-methyl-pyridin-2-yl)methyl]pyrrolidin-3-yl]-N'-[(4-chlorophenyl)methyl]ethane-1,2-diamine

>  <Synonyms>  (10) 


>  <Type>  (10) 
NON-POLYMER

>  <Formula>  (10) 
C20 H28 Cl N5

>  <ObservedFormula>  (10) 
C20 Cl N5

>  <MolecularWeight>  (10) 
373.923

>  <ModifiedDate>  (10) 
2011-06-04

>  <Parent>  (10) 


>  <OneLetterCode>  (10) 


>  <SubcomponentList>  (10) 


>  <AmbiguousFlag>  (10) 


>  <InsertionCode>  (10) 


>  <InstanceId>  (10) 
3DQS_JI3_B_800

>  <ChemCompId>  (10) 
JI3

>  <PdbId>  (10) 
3DQS

>  <ResidueNumber>  (10) 
800

>  <InChI>  (10) 
InChI=1S/C20H28ClN5/c1-14-8-18(26-20(22)9-14)10-16-12-24-13-19(16)25-7-6-23-11-15-2-4-17(21)5-3-15/h2-5,8-9,16,19,23-25H,6-7,10-13H2,1H3,(H2,22,26)/t16-,19+/m0/s1

>  <InChIKey>  (10) 
JDRSQGJWTVRNGM-QFBILLFUSA-N

>  <SMILES>  (10) 
Cc1cc(nc(c1)N)C[C@H]2CNC[C@H]2NCCNCc3ccc(cc3)Cl

>  <MissingHeavyAtoms>  (10) 
0

>  <Model>  (10) 
1

>  <AltIds>  (10) 


>  <pKI>  (10) 
4.07

>  <ChemblID>  (10) 
CHEMBL481815

>  <standardized_canonical_smiles>  (10) 
Cc1cc(N)nc(C[C@H]2CNC[C@H]2NCCNCc2ccc(Cl)cc2)c1

$$$$
3JWW_JI4_B_800
     RDKit          3D

 27 29  0  0  0  0  0  0  0  0999 V2000
    0.4000    2.8900   65.2070 C   0  0  0  0  0  0  0  0  0  0  0  0
   -0.1130    4.0540   64.5070 N   0  0  0  0  0  0  0  0  0  0  0  0
    0.2110    1.6050   64.4080 C   0  0  0  0  0  0  0  0  0  0  0  0
    0.8340    1.6510   63.1100 N   0  0  0  0  0  0  0  0  0  0  0  0
   -0.0600    1.9060   61.9900 C   0  0  0  0  0  0  0  0  0  0  0  0
    0.0100    0.8480   60.8870 C   0  0  0  0  0  0  0  0  0  0  0  0
   -2.4370    6.7560   64.6160 N   0  0  0  0  0  0  0  0  0  0  0  0
    0.5130   -0.5150   61.3390 C   0  0  0  0  0  0  0  0  0  0  0  0
   -0.3200   -1.6440   61.2070 C   0  0  0  0  0  0  0  0  0  0  0  0
    0.1340   -2.9020   61.6000 C   0  0  0  0  0  0  0  0  0  0  0  0
   -0.6540   -3.9870   61.4930 F   0  0  0  0  0  0  0  0  0  0  0  0
    1.4260   -3.0420   62.1330 C   0  0  0  0  0  0  0  0  0  0  0  0
    2.2500   -1.9210   62.2530 C   0  0  0  0  0  0  0  0  0  0  0  0
    1.8050   -0.6550   61.8560 C   0  0  0  0  0  0  0  0  0  0  0  0
    0.0840    9.0740   66.4130 N   0  0  0  0  0  0  0  0  0  0  0  0
   -1.9570    5.5720   63.9460 C   0  0  0  0  0  0  0  0  0  0  0  0
    0.5590    7.8800   66.7970 C   0  0  0  0  0  0  0  0  0  0  0  0
   -1.2190    4.8280   65.0580 C   0  0  0  0  0  0  0  0  0  0  0  0
    1.1900    7.7990   68.0300 C   0  0  0  0  0  0  0  0  0  0  0  0
   -0.8560    5.8740   66.1110 C   0  0  0  0  0  0  0  0  0  0  0  0
    1.3280    8.9110   68.8310 C   0  0  0  0  0  0  0  0  0  0  0  0
   -2.0010    6.8760   66.0110 C   0  0  0  0  0  0  0  0  0  0  0  0
    0.7930   10.1170   68.4370 C   0  0  0  0  0  0  0  0  0  0  0  0
    0.1740   10.1690   67.2060 C   0  0  0  0  0  0  0  0  0  0  0  0
   -0.3390   11.3440   66.8000 N   0  0  0  0  0  0  0  0  0  0  0  0
    0.4340    6.6600   65.8820 C   0  0  0  0  0  0  0  0  0  0  0  0
    2.0150    8.8180   70.1520 C   0  0  0  0  0  0  0  0  0  0  0  0
  2  1  1  0
  3  1  1  0
 18  2  1  0
  4  3  1  0
  5  4  1  0
  6  5  1  0
  8  6  1  0
 16  7  1  0
 22  7  1  0
  9  8  2  0
 14  8  1  0
 10  9  1  0
 11 10  1  0
 12 10  2  0
 13 12  1  0
 14 13  2  0
 17 15  2  0
 24 15  1  0
 18 16  1  0
 19 17  1  0
 26 17  1  0
 20 18  1  0
 21 19  2  0
 22 20  1  0
 26 20  1  0
 23 21  1  0
 27 21  1  0
 24 23  2  0
 25 24  1  0
A    1
C1
A    2
N1
A    3
C2
A    4
N2
A    5
C3
A    6
C4
A    7
N1'
A    8
C11
A    9
C12
A   10
C13
A   11
F13
A   12
C14
A   13
C15
A   14
C16
A   15
N11
A   16
C2'
A   17
C21
A   18
C3'
A   19
C31
A   20
C4'
A   21
C41
A   22
C5'
A   23
C51
A   24
C61
A   25
N61
A   26
C71
A   27
C81
M  END
>  <Id>  (11) 
3JWW_JI4_B_800

>  <ChainId>  (11) 
B

>  <AsymId>  (11) 
M

>  <SeqNum>  (11) 
800

>  <Name>  (11) 
N-{(3S,4S)-4-[(6-amino-4-methylpyridin-2-yl)methyl]pyrrolidin-3-yl}-N'-[2-(3-fluorophenyl)ethyl]ethane-1,2-diamine

>  <SystematicName>  (11) 
N-[(3S,4S)-4-[(6-azanyl-4-methyl-pyridin-2-yl)methyl]pyrrolidin-3-yl]-N'-[2-(3-fluorophenyl)ethyl]ethane-1,2-diamine

>  <Synonyms>  (11) 
N1-[(3' S,4' S)-4'-((6"-amino-4"-methylpyridin-2"-yl)methyl)pyrrolidin-3'-yl]-N2-(3'-fluorophenethyl)ethane-1,2-diamine tetrahydrochloride

>  <Type>  (11) 
NON-POLYMER

>  <Formula>  (11) 
C21 H30 F N5

>  <ObservedFormula>  (11) 
C21 F N5

>  <MolecularWeight>  (11) 
371.495

>  <ModifiedDate>  (11) 
2011-06-04

>  <Parent>  (11) 


>  <OneLetterCode>  (11) 


>  <SubcomponentList>  (11) 


>  <AmbiguousFlag>  (11) 
N

>  <InsertionCode>  (11) 


>  <InstanceId>  (11) 
3JWW_JI4_B_800

>  <ChemCompId>  (11) 
JI4

>  <PdbId>  (11) 
3JWW

>  <ResidueNumber>  (11) 
800

>  <InChI>  (11) 
InChI=1S/C21H30FN5/c1-15-9-19(27-21(23)10-15)12-17-13-25-14-20(17)26-8-7-24-6-5-16-3-2-4-18(22)11-16/h2-4,9-11,17,20,24-26H,5-8,12-14H2,1H3,(H2,23,27)/t17-,20+/m0/s1

>  <InChIKey>  (11) 
PUOKPLCASUFBAN-FXAWDEMLSA-N

>  <SMILES>  (11) 
Cc1cc(nc(c1)N)C[C@H]2CNC[C@H]2NCCNCCc3cccc(c3)F

>  <MissingHeavyAtoms>  (11) 
0

>  <Model>  (11) 
1

>  <AltIds>  (11) 


>  <pKI>  (11) 
4.55

>  <ChemblID>  (11) 
CHEMBL480419

>  <standardized_canonical_smiles>  (11) 
Cc1cc(N)nc(C[C@H]2CNC[C@H]2NCCNCCc2cccc(F)c2)c1

$$$$
3NLH_JSS_B_800
     RDKit          3D

 27 29  0  0  0  0  0  0  0  0999 V2000
   -0.1720    3.5240   65.1610 C   0  0  0  0  0  0  0  0  0  0  0  0
   -0.3300    4.8320   64.6200 O   0  0  0  0  0  0  0  0  0  0  0  0
    1.1910    3.0030   64.7170 C   0  0  0  0  0  0  0  0  0  0  0  0
    1.2400    2.7200   63.2980 N   0  0  0  0  0  0  0  0  0  0  0  0
    0.5560    1.5690   62.7490 C   0  0  0  0  0  0  0  0  0  0  0  0
    1.2120    1.1370   61.4460 C   0  0  0  0  0  0  0  0  0  0  0  0
   -2.8030    7.3000   64.4430 N   0  0  0  0  0  0  0  0  0  0  0  0
    0.9640   -0.3300   61.2140 C   0  0  0  0  0  0  0  0  0  0  0  0
    1.5060   -1.2910   62.0650 C   0  0  0  0  0  0  0  0  0  0  0  0
    1.2670   -2.6500   61.8360 C   0  0  0  0  0  0  0  0  0  0  0  0
    1.7880   -3.5860   62.6710 F   0  0  0  0  0  0  0  0  0  0  0  0
    0.4870   -3.0430   60.7480 C   0  0  0  0  0  0  0  0  0  0  0  0
   -0.0480   -2.0780   59.8990 C   0  0  0  0  0  0  0  0  0  0  0  0
    0.1900   -0.7250   60.1320 C   0  0  0  0  0  0  0  0  0  0  0  0
   -0.1030    9.6820   66.3190 N   0  0  0  0  0  0  0  0  0  0  0  0
   -2.2720    6.0630   63.9000 C   0  0  0  0  0  0  0  0  0  0  0  0
    0.3050    8.4650   66.7110 C   0  0  0  0  0  0  0  0  0  0  0  0
   -1.5280    5.4350   65.0770 C   0  0  0  0  0  0  0  0  0  0  0  0
    0.8960    8.3140   67.9660 C   0  0  0  0  0  0  0  0  0  0  0  0
   -1.2530    6.5760   66.0610 C   0  0  0  0  0  0  0  0  0  0  0  0
    1.0680    9.4300   68.7840 C   0  0  0  0  0  0  0  0  0  0  0  0
   -2.4140    7.5260   65.8290 C   0  0  0  0  0  0  0  0  0  0  0  0
    0.6410   10.6960   68.3570 C   0  0  0  0  0  0  0  0  0  0  0  0
    0.0540   10.7850   67.0910 C   0  0  0  0  0  0  0  0  0  0  0  0
   -0.3750   11.9670   66.6020 N   0  0  0  0  0  0  0  0  0  0  0  0
    0.0850    7.2830   65.7910 C   0  0  0  0  0  0  0  0  0  0  0  0
    1.7040    9.2600   70.1330 C   0  0  0  0  0  0  0  0  0  0  0  0
  2  1  1  0
  3  1  1  0
 18  2  1  0
  4  3  1  0
  5  4  1  0
  6  5  1  0
  8  6  1  0
 16  7  1  0
 22  7  1  0
  9  8  2  0
 14  8  1  0
 10  9  1  0
 11 10  1  0
 12 10  2  0
 13 12  1  0
 14 13  2  0
 17 15  2  0
 24 15  1  0
 18 16  1  0
 19 17  1  0
 26 17  1  0
 20 18  1  0
 21 19  2  0
 22 20  1  0
 26 20  1  0
 23 21  1  0
 27 21  1  0
 24 23  2  0
 25 24  1  0
A    1
C1
A    2
O1
A    3
C2
A    4
N2
A    5
C3
A    6
C4
A    7
N1'
A    8
C11
A    9
C12
A   10
C13
A   11
F13
A   12
C14
A   13
C15
A   14
C16
A   15
N1A
A   16
C2'
A   17
C2A
A   18
C3'
A   19
C3A
A   20
C4'
A   21
C4A
A   22
C5'
A   23
C5A
A   24
C6A
A   25
N6A
A   26
C7A
A   27
C8A
M  END
>  <Id>  (12) 
3NLH_JSS_B_800

>  <ChainId>  (12) 
B

>  <AsymId>  (12) 
N

>  <SeqNum>  (12) 
800

>  <Name>  (12) 
6-{[(3S,4S)-4-(2-{[2-(3-fluorophenyl)ethyl]amino}ethoxy)pyrrolidin-3-yl]methyl}-4-methylpyridin-2-amine

>  <SystematicName>  (12) 
6-[[(3S,4S)-4-[2-[2-(3-fluorophenyl)ethylamino]ethoxy]pyrrolidin-3-yl]methyl]-4-methyl-pyridin-2-amine

>  <Synonyms>  (12) 


>  <Type>  (12) 
NON-POLYMER

>  <Formula>  (12) 
C21 H29 F N4 O

>  <ObservedFormula>  (12) 
C21 F N4 O

>  <MolecularWeight>  (12) 
372.48

>  <ModifiedDate>  (12) 
2011-06-04

>  <Parent>  (12) 


>  <OneLetterCode>  (12) 


>  <SubcomponentList>  (12) 


>  <AmbiguousFlag>  (12) 
N

>  <InsertionCode>  (12) 


>  <InstanceId>  (12) 
3NLH_JSS_B_800

>  <ChemCompId>  (12) 
JSS

>  <PdbId>  (12) 
3NLH

>  <ResidueNumber>  (12) 
800

>  <InChI>  (12) 
InChI=1S/C21H29FN4O/c1-15-9-19(26-21(23)10-15)12-17-13-25-14-20(17)27-8-7-24-6-5-16-3-2-4-18(22)11-16/h2-4,9-11,17,20,24-25H,5-8,12-14H2,1H3,(H2,23,26)/t17-,20+/m0/s1

>  <InChIKey>  (12) 
NESZTSPBRDBHCW-FXAWDEMLSA-N

>  <SMILES>  (12) 
Cc1cc(nc(c1)N)C[C@H]2CNC[C@H]2OCCNCCc3cccc(c3)F

>  <MissingHeavyAtoms>  (12) 
0

>  <Model>  (12) 
1

>  <AltIds>  (12) 


>  <pKI>  (12) 
4.51

>  <ChemblID>  (12) 
CHEMBL469987

>  <standardized_canonical_smiles>  (12) 
Cc1cc(N)nc(C[C@H]2CNC[C@H]2OCCNCCc2cccc(F)c2)c1

$$$$
3NLD_JSS_B_800
     RDKit          3D

 27 29  0  0  0  0  0  0  0  0999 V2000
   -0.2270    3.4120   65.2870 C   0  0  0  0  0  0  0  0  0  0  0  0
   -0.3430    4.6650   64.5990 O   0  0  0  0  0  0  0  0  0  0  0  0
    1.0650    2.7270   64.8580 C   0  0  0  0  0  0  0  0  0  0  0  0
    1.0550    2.3720   63.4580 N   0  0  0  0  0  0  0  0  0  0  0  0
    0.6680    1.0240   63.1260 C   0  0  0  0  0  0  0  0  0  0  0  0
    0.6750    0.7920   61.6290 C   0  0  0  0  0  0  0  0  0  0  0  0
   -2.7210    7.1200   64.1830 N   0  0  0  0  0  0  0  0  0  0  0  0
    0.2190   -0.6200   61.4110 C   0  0  0  0  0  0  0  0  0  0  0  0
    1.1240   -1.6470   61.6500 C   0  0  0  0  0  0  0  0  0  0  0  0
    0.7070   -2.9660   61.4570 C   0  0  0  0  0  0  0  0  0  0  0  0
    1.5910   -3.9560   61.6960 F   0  0  0  0  0  0  0  0  0  0  0  0
   -0.6080   -3.2580   61.0420 C   0  0  0  0  0  0  0  0  0  0  0  0
   -1.5200   -2.2230   60.8110 C   0  0  0  0  0  0  0  0  0  0  0  0
   -1.1000   -0.9000   60.9980 C   0  0  0  0  0  0  0  0  0  0  0  0
   -0.1960    9.6480   66.3570 N   0  0  0  0  0  0  0  0  0  0  0  0
   -2.2360    5.8370   63.7980 C   0  0  0  0  0  0  0  0  0  0  0  0
    0.2030    8.4280   66.6960 C   0  0  0  0  0  0  0  0  0  0  0  0
   -1.5190    5.3460   65.0400 C   0  0  0  0  0  0  0  0  0  0  0  0
    0.7490    8.2220   67.9360 C   0  0  0  0  0  0  0  0  0  0  0  0
   -1.2730    6.5490   65.9440 C   0  0  0  0  0  0  0  0  0  0  0  0
    0.8410    9.2530   68.8290 C   0  0  0  0  0  0  0  0  0  0  0  0
   -2.4690    7.4050   65.5930 C   0  0  0  0  0  0  0  0  0  0  0  0
    0.3770   10.5200   68.4640 C   0  0  0  0  0  0  0  0  0  0  0  0
   -0.1320   10.6870   67.2000 C   0  0  0  0  0  0  0  0  0  0  0  0
   -0.5710   11.8910   66.7170 N   0  0  0  0  0  0  0  0  0  0  0  0
    0.0600    7.3250   65.6820 C   0  0  0  0  0  0  0  0  0  0  0  0
    1.4140    8.9390   70.1990 C   0  0  0  0  0  0  0  0  0  0  0  0
  2  1  1  0
  3  1  1  0
 18  2  1  0
  4  3  1  0
  5  4  1  0
  6  5  1  0
  8  6  1  0
 16  7  1  0
 22  7  1  0
  9  8  2  0
 14  8  1  0
 10  9  1  0
 11 10  1  0
 12 10  2  0
 13 12  1  0
 14 13  2  0
 17 15  2  0
 24 15  1  0
 18 16  1  0
 19 17  1  0
 26 17  1  0
 20 18  1  0
 21 19  2  0
 22 20  1  0
 26 20  1  0
 23 21  1  0
 27 21  1  0
 24 23  2  0
 25 24  1  0
A    1
C1
A    2
O1
A    3
C2
A    4
N2
A    5
C3
A    6
C4
A    7
N1'
A    8
C11
A    9
C12
A   10
C13
A   11
F13
A   12
C14
A   13
C15
A   14
C16
A   15
N1A
A   16
C2'
A   17
C2A
A   18
C3'
A   19
C3A
A   20
C4'
A   21
C4A
A   22
C5'
A   23
C5A
A   24
C6A
A   25
N6A
A   26
C7A
A   27
C8A
M  END
>  <Id>  (13) 
3NLD_JSS_B_800

>  <ChainId>  (13) 
B

>  <AsymId>  (13) 
N

>  <SeqNum>  (13) 
800

>  <Name>  (13) 
6-{[(3S,4S)-4-(2-{[2-(3-fluorophenyl)ethyl]amino}ethoxy)pyrrolidin-3-yl]methyl}-4-methylpyridin-2-amine

>  <SystematicName>  (13) 
6-[[(3S,4S)-4-[2-[2-(3-fluorophenyl)ethylamino]ethoxy]pyrrolidin-3-yl]methyl]-4-methyl-pyridin-2-amine

>  <Synonyms>  (13) 


>  <Type>  (13) 
NON-POLYMER

>  <Formula>  (13) 
C21 H29 F N4 O

>  <ObservedFormula>  (13) 
C21 F N4 O

>  <MolecularWeight>  (13) 
372.48

>  <ModifiedDate>  (13) 
2011-06-04

>  <Parent>  (13) 


>  <OneLetterCode>  (13) 


>  <SubcomponentList>  (13) 


>  <AmbiguousFlag>  (13) 
N

>  <InsertionCode>  (13) 


>  <InstanceId>  (13) 
3NLD_JSS_B_800

>  <ChemCompId>  (13) 
JSS

>  <PdbId>  (13) 
3NLD

>  <ResidueNumber>  (13) 
800

>  <InChI>  (13) 
InChI=1S/C21H29FN4O/c1-15-9-19(26-21(23)10-15)12-17-13-25-14-20(17)27-8-7-24-6-5-16-3-2-4-18(22)11-16/h2-4,9-11,17,20,24-25H,5-8,12-14H2,1H3,(H2,23,26)/t17-,20+/m0/s1

>  <InChIKey>  (13) 
NESZTSPBRDBHCW-FXAWDEMLSA-N

>  <SMILES>  (13) 
Cc1cc(nc(c1)N)C[C@H]2CNC[C@H]2OCCNCCc3cccc(c3)F

>  <MissingHeavyAtoms>  (13) 
0

>  <Model>  (13) 
1

>  <AltIds>  (13) 


>  <pKI>  (13) 
4.51

>  <ChemblID>  (13) 
CHEMBL469987

>  <standardized_canonical_smiles>  (13) 
Cc1cc(N)nc(C[C@H]2CNC[C@H]2OCCNCCc2cccc(F)c2)c1

$$$$
3PNH_8CX_B_800
     RDKit          3D

 28 30  0  0  0  0  0  0  0  0999 V2000
   -2.3710    4.0060   64.0230 C   0  0  0  0  0  0  0  0  0  0  0  0
   -1.3760    3.1760   63.4450 O   0  0  0  0  0  0  0  0  0  0  0  0
   -1.7330    4.5880   65.2580 C   0  0  0  0  0  0  0  0  0  0  0  0
   -1.1380    5.8660   64.9680 N   0  0  0  0  0  0  0  0  0  0  0  0
   -1.3040    6.8890   65.9910 C   0  0  0  0  0  0  0  0  0  0  0  0
   -0.0520    7.7060   65.8040 C   0  0  0  0  0  0  0  0  0  0  0  0
    0.9930    6.8020   65.8500 F   0  0  0  0  0  0  0  0  0  0  0  0
   -0.4970    3.6170   60.6200 N   0  0  0  0  0  0  0  0  0  0  0  0
    0.2060    8.7760   66.7780 C   0  0  0  0  0  0  0  0  0  0  0  0
    0.7690    8.4700   68.0190 C   0  0  0  0  0  0  0  0  0  0  0  0
    1.0680    9.4960   68.9070 C   0  0  0  0  0  0  0  0  0  0  0  0
    1.5800    9.2020   70.1090 F   0  0  0  0  0  0  0  0  0  0  0  0
    0.8060   10.8160   68.5640 C   0  0  0  0  0  0  0  0  0  0  0  0
    0.2700   11.1130   67.3080 C   0  0  0  0  0  0  0  0  0  0  0  0
   -0.0260   10.0830   66.4230 C   0  0  0  0  0  0  0  0  0  0  0  0
    2.4680    0.2280   62.8470 N   0  0  0  0  0  0  0  0  0  0  0  0
   -1.8740    3.4230   61.0610 C   0  0  0  0  0  0  0  0  0  0  0  0
    1.1430   -0.1270   62.6910 C   0  0  0  0  0  0  0  0  0  0  0  0
   -1.7310    2.4590   62.2530 C   0  0  0  0  0  0  0  0  0  0  0  0
    0.7910   -1.3420   62.1150 C   0  0  0  0  0  0  0  0  0  0  0  0
   -0.5230    1.5880   61.8980 C   0  0  0  0  0  0  0  0  0  0  0  0
    1.8130   -2.2070   61.7200 C   0  0  0  0  0  0  0  0  0  0  0  0
    0.4150    2.5940   61.1890 C   0  0  0  0  0  0  0  0  0  0  0  0
    3.1590   -1.8340   61.8960 C   0  0  0  0  0  0  0  0  0  0  0  0
    3.4800   -0.5840   62.4780 C   0  0  0  0  0  0  0  0  0  0  0  0
    4.7750   -0.1690   62.6860 N   0  0  0  0  0  0  0  0  0  0  0  0
    0.0610    0.8400   63.1170 C   0  0  0  0  0  0  0  0  0  0  0  0
    1.4370   -3.5310   61.0840 C   0  0  0  0  0  0  0  0  0  0  0  0
  2  1  1  0
  3  1  1  0
 19  2  1  0
  4  3  1  0
  5  4  1  0
  6  5  1  0
  7  6  1  0
  9  6  1  0
 17  8  1  0
 23  8  1  0
 10  9  2  0
 15  9  1  0
 11 10  1  0
 12 11  1  0
 13 11  2  0
 14 13  1  0
 15 14  2  0
 18 16  2  0
 25 16  1  0
 19 17  1  0
 20 18  1  0
 27 18  1  0
 21 19  1  0
 22 20  2  0
 23 21  1  0
 27 21  1  0
 24 22  1  0
 28 22  1  0
 25 24  2  0
 26 25  1  0
A    1
C1
A    2
O1
A    3
C2
A    4
N2
A    5
C3
A    6
C4
A    7
F5
A    8
N1'
A    9
C11
A   10
C12
A   11
C13
A   12
F13
A   13
C14
A   14
C15
A   15
C16
A   16
N1A
A   17
C2'
A   18
C2A
A   19
C3'
A   20
C3A
A   21
C4'
A   22
C4A
A   23
C5'
A   24
C5A
A   25
C6A
A   26
N6A
A   27
C7A
A   28
C8A
M  END
>  <Id>  (14) 
3PNH_8CX_B_800

>  <ChainId>  (14) 
B

>  <AsymId>  (14) 
N

>  <SeqNum>  (14) 
800

>  <Name>  (14) 
6-{[(3R,4R)-4-(2-{[(2R)-2-fluoro-2-(3-fluorophenyl)ethyl]amino}ethoxy)pyrrolidin-3-yl]methyl}-4-methylpyridin-2-amine

>  <SystematicName>  (14) 
6-[[(3R,4R)-4-[2-[[(2R)-2-fluoro-2-(3-fluorophenyl)ethyl]amino]ethoxy]pyrrolidin-3-yl]methyl]-4-methyl-pyridin-2-amine

>  <Synonyms>  (14) 


>  <Type>  (14) 
NON-POLYMER

>  <Formula>  (14) 
C21 H28 F2 N4 O

>  <ObservedFormula>  (14) 
C21 F2 N4 O

>  <MolecularWeight>  (14) 
390.47

>  <ModifiedDate>  (14) 
2011-09-30

>  <Parent>  (14) 


>  <OneLetterCode>  (14) 


>  <SubcomponentList>  (14) 


>  <AmbiguousFlag>  (14) 
N

>  <InsertionCode>  (14) 


>  <InstanceId>  (14) 
3PNH_8CX_B_800

>  <ChemCompId>  (14) 
8CX

>  <PdbId>  (14) 
3PNH

>  <ResidueNumber>  (14) 
800

>  <InChI>  (14) 
InChI=1S/C21H28F2N4O/c1-14-7-18(27-21(24)8-14)10-16-11-26-13-20(16)28-6-5-25-12-19(23)15-3-2-4-17(22)9-15/h2-4,7-9,16,19-20,25-26H,5-6,10-13H2,1H3,(H2,24,27)/t16-,19+,20+/m1/s1

>  <InChIKey>  (14) 
NOLWAWWUERSXHH-UXPWSPDFSA-N

>  <SMILES>  (14) 
Cc1cc(nc(c1)N)C[C@@H]2CNC[C@@H]2OCCNC[C@@H](c3cccc(c3)F)F

>  <MissingHeavyAtoms>  (14) 
0

>  <Model>  (14) 
1

>  <AltIds>  (14) 


>  <pKI>  (14) 
4.44

>  <ChemblID>  (14) 
CHEMBL1086858

>  <standardized_canonical_smiles>  (14) 
Cc1cc(N)nc(CC2CNCC2OCCNCC(F)c2cccc(F)c2)c1

$$$$
3NLU_3XB_B_800
     RDKit          3D

 29 31  0  0  0  0  0  0  0  0999 V2000
   -2.0750    4.0170   64.4650 C   0  0  0  0  0  0  0  0  0  0  0  0
   -1.1260    3.3280   63.6640 O   0  0  0  0  0  0  0  0  0  0  0  0
   -1.6370    5.4570   64.4190 C   0  0  0  0  0  0  0  0  0  0  0  0
   -0.1890    5.5450   64.4680 N   0  0  0  0  0  0  0  0  0  0  0  0
    0.4390    6.7580   64.9890 C   0  0  0  0  0  0  0  0  0  0  0  0
   -0.5480    7.4440   65.9240 C   0  0  0  0  0  0  0  0  0  0  0  0
   -0.8960    6.5420   66.8230 F   0  0  0  0  0  0  0  0  0  0  0  0
   -1.6610    7.7140   65.2600 F   0  0  0  0  0  0  0  0  0  0  0  0
   -0.5920    3.5470   60.4720 N   0  0  0  0  0  0  0  0  0  0  0  0
   -0.0360    8.6580   66.6600 C   0  0  0  0  0  0  0  0  0  0  0  0
    0.5500    8.4980   67.8960 C   0  0  0  0  0  0  0  0  0  0  0  0
    0.9810    9.5900   68.5950 C   0  0  0  0  0  0  0  0  0  0  0  0
    1.5340    9.3960   69.7850 F   0  0  0  0  0  0  0  0  0  0  0  0
    0.8320   10.8640   68.0950 C   0  0  0  0  0  0  0  0  0  0  0  0
    0.2300   11.0490   66.8710 C   0  0  0  0  0  0  0  0  0  0  0  0
   -0.2080    9.9430   66.1720 C   0  0  0  0  0  0  0  0  0  0  0  0
    2.4160    0.3470   62.8050 N   0  0  0  0  0  0  0  0  0  0  0  0
   -1.7730    3.7720   61.2910 C   0  0  0  0  0  0  0  0  0  0  0  0
    1.0760    0.1940   62.7380 C   0  0  0  0  0  0  0  0  0  0  0  0
   -1.6500    2.7680   62.4500 C   0  0  0  0  0  0  0  0  0  0  0  0
    0.4990   -0.9530   62.2060 C   0  0  0  0  0  0  0  0  0  0  0  0
   -0.6020    1.7630   62.0180 C   0  0  0  0  0  0  0  0  0  0  0  0
    1.3270   -1.9740   61.7410 C   0  0  0  0  0  0  0  0  0  0  0  0
    0.2190    2.4210   60.9050 C   0  0  0  0  0  0  0  0  0  0  0  0
    2.7230   -1.8090   61.8260 C   0  0  0  0  0  0  0  0  0  0  0  0
    3.2510   -0.6220   62.3710 C   0  0  0  0  0  0  0  0  0  0  0  0
    4.5820   -0.4030   62.4820 N   0  0  0  0  0  0  0  0  0  0  0  0
    0.2230    1.3130   63.2200 C   0  0  0  0  0  0  0  0  0  0  0  0
    0.6970   -3.2290   61.1710 C   0  0  0  0  0  0  0  0  0  0  0  0
  2  1  1  0
  3  1  1  0
 20  2  1  0
  4  3  1  0
  5  4  1  0
  6  5  1  0
  7  6  1  0
  8  6  1  0
 10  6  1  0
 18  9  1  0
 24  9  1  0
 11 10  2  0
 16 10  1  0
 12 11  1  0
 13 12  1  0
 14 12  2  0
 15 14  1  0
 16 15  2  0
 19 17  2  0
 26 17  1  0
 20 18  1  0
 21 19  1  0
 28 19  1  0
 22 20  1  0
 23 21  2  0
 24 22  1  0
 28 22  1  0
 25 23  1  0
 29 23  1  0
 26 25  2  0
 27 26  1  0
A    1
C1
A    2
O1
A    3
C2
A    4
N2
A    5
C3
A    6
C4
A    7
F5
A    8
F6
A    9
N1'
A   10
C11
A   11
C12
A   12
C13
A   13
F13
A   14
C14
A   15
C15
A   16
C16
A   17
N1A
A   18
C2'
A   19
C2A
A   20
C3'
A   21
C3A
A   22
C4'
A   23
C4A
A   24
C5'
A   25
C5A
A   26
C6A
A   27
N6A
A   28
C7A
A   29
C8A
M  END
>  <Id>  (15) 
3NLU_3XB_B_800

>  <ChainId>  (15) 
B

>  <AsymId>  (15) 
M

>  <SeqNum>  (15) 
800

>  <Name>  (15) 
6-{[(3R,4R)-4-(2-{[2,2-difluoro-2-(3-fluorophenyl)ethyl]amino}ethoxy)pyrrolidin-3-yl]methyl}-4-methylpyridin-2-amine

>  <SystematicName>  (15) 
6-[[(3R,4R)-4-[2-[[2,2-difluoro-2-(3-fluorophenyl)ethyl]amino]ethoxy]pyrrolidin-3-yl]methyl]-4-methyl-pyridin-2-amine

>  <Synonyms>  (15) 


>  <Type>  (15) 
NON-POLYMER

>  <Formula>  (15) 
C21 H27 F3 N4 O

>  <ObservedFormula>  (15) 
C21 F3 N4 O

>  <MolecularWeight>  (15) 
408.46

>  <ModifiedDate>  (15) 
2011-06-04

>  <Parent>  (15) 


>  <OneLetterCode>  (15) 


>  <SubcomponentList>  (15) 


>  <AmbiguousFlag>  (15) 
N

>  <InsertionCode>  (15) 


>  <InstanceId>  (15) 
3NLU_3XB_B_800

>  <ChemCompId>  (15) 
3XB

>  <PdbId>  (15) 
3NLU

>  <ResidueNumber>  (15) 
800

>  <InChI>  (15) 
InChI=1S/C21H27F3N4O/c1-14-7-18(28-20(25)8-14)9-15-11-27-12-19(15)29-6-5-26-13-21(23,24)16-3-2-4-17(22)10-16/h2-4,7-8,10,15,19,26-27H,5-6,9,11-13H2,1H3,(H2,25,28)/t15-,19+/m1/s1

>  <InChIKey>  (15) 
IRAITVAESBBILD-BEFAXECRSA-N

>  <SMILES>  (15) 
Cc1cc(nc(c1)N)C[C@@H]2CNC[C@@H]2OCCNCC(c3cccc(c3)F)(F)F

>  <MissingHeavyAtoms>  (15) 
0

>  <Model>  (15) 
1

>  <AltIds>  (15) 


>  <pKI>  (15) 
4.21

>  <ChemblID>  (15) 
CHEMBL1086859

>  <standardized_canonical_smiles>  (15) 
Cc1cc(N)nc(CC2CNCC2OCCNCC(F)(F)c2cccc(F)c2)c1

$$$$
3NLI_JRR_B_800
     RDKit          3D

 27 29  0  0  0  0  0  0  0  0999 V2000
   -2.4650    4.1730   64.0030 C   0  0  0  0  0  0  0  0  0  0  0  0
   -1.3800    3.4780   63.4050 O   0  0  0  0  0  0  0  0  0  0  0  0
   -1.9180    4.9000   65.2240 C   0  0  0  0  0  0  0  0  0  0  0  0
   -1.2040    6.1090   64.8740 N   0  0  0  0  0  0  0  0  0  0  0  0
   -0.9970    7.1070   65.9070 C   0  0  0  0  0  0  0  0  0  0  0  0
    0.3700    7.7660   65.7470 C   0  0  0  0  0  0  0  0  0  0  0  0
   -0.5290    3.6090   60.5980 N   0  0  0  0  0  0  0  0  0  0  0  0
    0.5270    8.8820   66.7550 C   0  0  0  0  0  0  0  0  0  0  0  0
    1.0310    8.6140   68.0310 C   0  0  0  0  0  0  0  0  0  0  0  0
    1.1750    9.6540   68.9530 C   0  0  0  0  0  0  0  0  0  0  0  0
    1.6410    9.4000   70.1830 F   0  0  0  0  0  0  0  0  0  0  0  0
    0.8240   10.9570   68.6000 C   0  0  0  0  0  0  0  0  0  0  0  0
    0.3270   11.2150   67.3200 C   0  0  0  0  0  0  0  0  0  0  0  0
    0.1760   10.1810   66.4080 C   0  0  0  0  0  0  0  0  0  0  0  0
    2.4650    0.3850   62.8560 N   0  0  0  0  0  0  0  0  0  0  0  0
   -1.8990    3.4780   61.0650 C   0  0  0  0  0  0  0  0  0  0  0  0
    1.1410    0.0880   62.6960 C   0  0  0  0  0  0  0  0  0  0  0  0
   -1.7500    2.6210   62.3190 C   0  0  0  0  0  0  0  0  0  0  0  0
    0.7510   -1.0990   62.0740 C   0  0  0  0  0  0  0  0  0  0  0  0
   -0.5750    1.7210   61.9770 C   0  0  0  0  0  0  0  0  0  0  0  0
    1.7440   -1.9680   61.6150 C   0  0  0  0  0  0  0  0  0  0  0  0
    0.3640    2.6040   61.1510 C   0  0  0  0  0  0  0  0  0  0  0  0
    3.0890   -1.6420   61.7980 C   0  0  0  0  0  0  0  0  0  0  0  0
    3.4380   -0.4430   62.4340 C   0  0  0  0  0  0  0  0  0  0  0  0
    4.7460   -0.0930   62.6430 N   0  0  0  0  0  0  0  0  0  0  0  0
    0.1040    1.0740   63.1860 C   0  0  0  0  0  0  0  0  0  0  0  0
    1.3460   -3.2580   60.9350 C   0  0  0  0  0  0  0  0  0  0  0  0
  2  1  1  0
  3  1  1  0
 18  2  1  0
  4  3  1  0
  5  4  1  0
  6  5  1  0
  8  6  1  0
 16  7  1  0
 22  7  1  0
  9  8  2  0
 14  8  1  0
 10  9  1  0
 11 10  1  0
 12 10  2  0
 13 12  1  0
 14 13  2  0
 17 15  2  0
 24 15  1  0
 18 16  1  0
 19 17  1  0
 26 17  1  0
 20 18  1  0
 21 19  2  0
 22 20  1  0
 26 20  1  0
 23 21  1  0
 27 21  1  0
 24 23  2  0
 25 24  1  0
A    1
C1
A    2
O1
A    3
C2
A    4
N2
A    5
C3
A    6
C4
A    7
N1'
A    8
C11
A    9
C12
A   10
C13
A   11
F13
A   12
C14
A   13
C15
A   14
C16
A   15
N1A
A   16
C2'
A   17
C2A
A   18
C3'
A   19
C3A
A   20
C4'
A   21
C4A
A   22
C5'
A   23
C5A
A   24
C6A
A   25
N6A
A   26
C7A
A   27
C8A
M  END
>  <Id>  (16) 
3NLI_JRR_B_800

>  <ChainId>  (16) 
B

>  <AsymId>  (16) 
N

>  <SeqNum>  (16) 
800

>  <Name>  (16) 
6-{[(3R,4R)-4-(2-{[2-(3-fluorophenyl)ethyl]amino}ethoxy)pyrrolidin-3-yl]methyl}-4-methylpyridin-2-amine

>  <SystematicName>  (16) 
6-[[(3R,4R)-4-[2-[2-(3-fluorophenyl)ethylamino]ethoxy]pyrrolidin-3-yl]methyl]-4-methyl-pyridin-2-amine

>  <Synonyms>  (16) 


>  <Type>  (16) 
NON-POLYMER

>  <Formula>  (16) 
C21 H29 F N4 O

>  <ObservedFormula>  (16) 
C21 F N4 O

>  <MolecularWeight>  (16) 
372.48

>  <ModifiedDate>  (16) 
2011-06-04

>  <Parent>  (16) 


>  <OneLetterCode>  (16) 


>  <SubcomponentList>  (16) 


>  <AmbiguousFlag>  (16) 
N

>  <InsertionCode>  (16) 


>  <InstanceId>  (16) 
3NLI_JRR_B_800

>  <ChemCompId>  (16) 
JRR

>  <PdbId>  (16) 
3NLI

>  <ResidueNumber>  (16) 
800

>  <InChI>  (16) 
InChI=1S/C21H29FN4O/c1-15-9-19(26-21(23)10-15)12-17-13-25-14-20(17)27-8-7-24-6-5-16-3-2-4-18(22)11-16/h2-4,9-11,17,20,24-25H,5-8,12-14H2,1H3,(H2,23,26)/t17-,20+/m1/s1

>  <InChIKey>  (16) 
NESZTSPBRDBHCW-XLIONFOSSA-N

>  <SMILES>  (16) 
Cc1cc(nc(c1)N)C[C@@H]2CNC[C@@H]2OCCNCCc3cccc(c3)F

>  <MissingHeavyAtoms>  (16) 
0

>  <Model>  (16) 
1

>  <AltIds>  (16) 


>  <pKI>  (16) 
4.72

>  <ChemblID>  (16) 
CHEMBL607146

>  <standardized_canonical_smiles>  (16) 
Cc1cc(N)nc(C[C@@H]2CNC[C@@H]2OCCNCCc2cccc(F)c2)c1

$$$$
3NLE_JRR_B_800
     RDKit          3D

 27 29  0  0  0  0  0  0  0  0999 V2000
   -2.5500    4.2120   64.4890 C   0  0  0  0  0  0  0  0  0  0  0  0
   -1.5620    3.2770   64.0690 O   0  0  0  0  0  0  0  0  0  0  0  0
   -2.0720    4.8860   65.7670 C   0  0  0  0  0  0  0  0  0  0  0  0
   -1.0130    5.8490   65.5310 N   0  0  0  0  0  0  0  0  0  0  0  0
   -0.8890    6.9460   66.4610 C   0  0  0  0  0  0  0  0  0  0  0  0
    0.5190    7.5300   66.4560 C   0  0  0  0  0  0  0  0  0  0  0  0
   -0.6440    3.5840   61.1940 N   0  0  0  0  0  0  0  0  0  0  0  0
    0.5700    8.7020   67.4030 C   0  0  0  0  0  0  0  0  0  0  0  0
    1.1040    8.5270   68.6790 C   0  0  0  0  0  0  0  0  0  0  0  0
    1.1630    9.6100   69.5560 C   0  0  0  0  0  0  0  0  0  0  0  0
    1.6830    9.4360   70.7860 F   0  0  0  0  0  0  0  0  0  0  0  0
    0.6850   10.8640   69.1660 C   0  0  0  0  0  0  0  0  0  0  0  0
    0.1550   11.0260   67.8850 C   0  0  0  0  0  0  0  0  0  0  0  0
    0.0930    9.9450   67.0100 C   0  0  0  0  0  0  0  0  0  0  0  0
    2.3740    0.2680   63.4050 N   0  0  0  0  0  0  0  0  0  0  0  0
   -2.0040    3.4630   61.6930 C   0  0  0  0  0  0  0  0  0  0  0  0
    1.0540   -0.0380   63.2710 C   0  0  0  0  0  0  0  0  0  0  0  0
   -1.8630    2.5210   62.8820 C   0  0  0  0  0  0  0  0  0  0  0  0
    0.6780   -1.2590   62.7040 C   0  0  0  0  0  0  0  0  0  0  0  0
   -0.6550    1.6500   62.5220 C   0  0  0  0  0  0  0  0  0  0  0  0
    1.6630   -2.1560   62.2950 C   0  0  0  0  0  0  0  0  0  0  0  0
    0.2700    2.5930   61.7470 C   0  0  0  0  0  0  0  0  0  0  0  0
    3.0180   -1.8240   62.4500 C   0  0  0  0  0  0  0  0  0  0  0  0
    3.3510   -0.5860   63.0240 C   0  0  0  0  0  0  0  0  0  0  0  0
    4.6500   -0.2110   63.2050 N   0  0  0  0  0  0  0  0  0  0  0  0
    0.0140    0.9700   63.7190 C   0  0  0  0  0  0  0  0  0  0  0  0
    1.2450   -3.4760   61.6890 C   0  0  0  0  0  0  0  0  0  0  0  0
  2  1  1  0
  3  1  1  0
 18  2  1  0
  4  3  1  0
  5  4  1  0
  6  5  1  0
  8  6  1  0
 16  7  1  0
 22  7  1  0
  9  8  2  0
 14  8  1  0
 10  9  1  0
 11 10  1  0
 12 10  2  0
 13 12  1  0
 14 13  2  0
 17 15  2  0
 24 15  1  0
 18 16  1  0
 19 17  1  0
 26 17  1  0
 20 18  1  0
 21 19  2  0
 22 20  1  0
 26 20  1  0
 23 21  1  0
 27 21  1  0
 24 23  2  0
 25 24  1  0
A    1
C1
A    2
O1
A    3
C2
A    4
N2
A    5
C3
A    6
C4
A    7
N1'
A    8
C11
A    9
C12
A   10
C13
A   11
F13
A   12
C14
A   13
C15
A   14
C16
A   15
N1A
A   16
C2'
A   17
C2A
A   18
C3'
A   19
C3A
A   20
C4'
A   21
C4A
A   22
C5'
A   23
C5A
A   24
C6A
A   25
N6A
A   26
C7A
A   27
C8A
M  END
>  <Id>  (17) 
3NLE_JRR_B_800

>  <ChainId>  (17) 
B

>  <AsymId>  (17) 
N

>  <SeqNum>  (17) 
800

>  <Name>  (17) 
6-{[(3R,4R)-4-(2-{[2-(3-fluorophenyl)ethyl]amino}ethoxy)pyrrolidin-3-yl]methyl}-4-methylpyridin-2-amine

>  <SystematicName>  (17) 
6-[[(3R,4R)-4-[2-[2-(3-fluorophenyl)ethylamino]ethoxy]pyrrolidin-3-yl]methyl]-4-methyl-pyridin-2-amine

>  <Synonyms>  (17) 


>  <Type>  (17) 
NON-POLYMER

>  <Formula>  (17) 
C21 H29 F N4 O

>  <ObservedFormula>  (17) 
C21 F N4 O

>  <MolecularWeight>  (17) 
372.48

>  <ModifiedDate>  (17) 
2011-06-04

>  <Parent>  (17) 


>  <OneLetterCode>  (17) 


>  <SubcomponentList>  (17) 


>  <AmbiguousFlag>  (17) 
N

>  <InsertionCode>  (17) 


>  <InstanceId>  (17) 
3NLE_JRR_B_800

>  <ChemCompId>  (17) 
JRR

>  <PdbId>  (17) 
3NLE

>  <ResidueNumber>  (17) 
800

>  <InChI>  (17) 
InChI=1S/C21H29FN4O/c1-15-9-19(26-21(23)10-15)12-17-13-25-14-20(17)27-8-7-24-6-5-16-3-2-4-18(22)11-16/h2-4,9-11,17,20,24-25H,5-8,12-14H2,1H3,(H2,23,26)/t17-,20+/m1/s1

>  <InChIKey>  (17) 
NESZTSPBRDBHCW-XLIONFOSSA-N

>  <SMILES>  (17) 
Cc1cc(nc(c1)N)C[C@@H]2CNC[C@@H]2OCCNCCc3cccc(c3)F

>  <MissingHeavyAtoms>  (17) 
0

>  <Model>  (17) 
1

>  <AltIds>  (17) 


>  <pKI>  (17) 
4.72

>  <ChemblID>  (17) 
CHEMBL607146

>  <standardized_canonical_smiles>  (17) 
Cc1cc(N)nc(C[C@@H]2CNC[C@@H]2OCCNCCc2cccc(F)c2)c1

$$$$
3DQT_JI7_B_800
     RDKit          3D

 26 28  0  0  0  0  0  0  0  0999 V2000
    0.4520   10.0240   68.0140 C   0  0  0  0  0  0  0  0  0  0  0  0
    1.0450    8.7810   68.3390 C   0  0  0  0  0  0  0  0  0  0  0  0
    1.0300    7.7430   67.3740 C   0  0  0  0  0  0  0  0  0  0  0  0
    0.4290    7.9850   66.1400 C   0  0  0  0  0  0  0  0  0  0  0  0
   -0.1340    9.1800   65.8470 N   0  0  0  0  0  0  0  0  0  0  0  0
   -0.1390   10.2040   66.7390 C   0  0  0  0  0  0  0  0  0  0  0  0
    0.3310    6.9910   65.0430 C   0  0  0  0  0  0  0  0  0  0  0  0
   -0.6610    5.8370   65.2780 C   0  0  0  0  0  0  0  0  0  0  0  0
   -0.7060    4.9100   64.0590 C   0  0  0  0  0  0  0  0  0  0  0  0
   -1.9200    5.4330   63.2710 C   0  0  0  0  0  0  0  0  0  0  0  0
   -2.5770    6.4700   64.0820 N   0  0  0  0  0  0  0  0  0  0  0  0
   -2.1180    6.2460   65.4450 C   0  0  0  0  0  0  0  0  0  0  0  0
   -0.8700    3.5090   64.4660 N   0  0  0  0  0  0  0  0  0  0  0  0
    0.1680    2.6010   63.9120 C   0  0  0  0  0  0  0  0  0  0  0  0
    0.1600    2.5390   62.3430 C   0  0  0  0  0  0  0  0  0  0  0  0
    0.1350    1.1580   61.7840 N   0  0  0  0  0  0  0  0  0  0  0  0
    0.4440    0.0670   62.7150 C   0  0  0  0  0  0  0  0  0  0  0  0
    0.3880   -1.3010   62.0630 C   0  0  0  0  0  0  0  0  0  0  0  0
    1.5320   -2.1470   62.0420 C   0  0  0  0  0  0  0  0  0  0  0  0
    1.5040   -3.4420   61.4570 C   0  0  0  0  0  0  0  0  0  0  0  0
    0.2960   -3.9170   60.8670 C   0  0  0  0  0  0  0  0  0  0  0  0
   -0.8640   -3.0890   60.8680 C   0  0  0  0  0  0  0  0  0  0  0  0
   -0.8290   -1.7930   61.4600 C   0  0  0  0  0  0  0  0  0  0  0  0
   -2.3310   -3.6530   60.1510 Cl  0  0  0  0  0  0  0  0  0  0  0  0
    1.6640    8.5530   69.6740 C   0  0  0  0  0  0  0  0  0  0  0  0
   -0.7070   11.4390   66.4440 N   0  0  0  0  0  0  0  0  0  0  0  0
  2  1  2  0
  6  1  1  0
  3  2  1  0
 25  2  1  0
  4  3  2  0
  5  4  1  0
  7  4  1  0
  6  5  2  0
 26  6  1  0
  8  7  1  0
  9  8  1  0
 12  8  1  0
 10  9  1  0
 13  9  1  0
 11 10  1  0
 12 11  1  0
 14 13  1  0
 15 14  1  0
 16 15  1  0
 17 16  1  0
 18 17  1  0
 19 18  2  0
 23 18  1  0
 20 19  1  0
 21 20  2  0
 22 21  1  0
 23 22  2  0
 24 22  1  0
A    1
C5
A    2
C4
A    3
C3
A    4
C2
A    5
N1
A    6
C6
A    7
C7
A    8
C4'
A    9
C3'
A   10
C2'
A   11
N1'
A   12
C5'
A   13
N8
A   14
C9
A   15
C10
A   16
N11
A   17
C12
A   18
C26
A   19
C25
A   20
C24
A   21
C23
A   22
C22
A   23
C21
A   24
CL
A   25
C8
A   26
N6
M  END
>  <Id>  (18) 
3DQT_JI7_B_800

>  <ChainId>  (18) 
B

>  <AsymId>  (18) 
N

>  <SeqNum>  (18) 
800

>  <Name>  (18) 
N-{(3R,4S)-4-[(6-amino-4-methylpyridin-2-yl)methyl]pyrrolidin-3-yl}-N'-(3-chlorobenzyl)ethane-1,2-diamine

>  <SystematicName>  (18) 
N-[(3R,4S)-4-[(6-amino-4-methyl-pyridin-2-yl)methyl]pyrrolidin-3-yl]-N'-[(3-chlorophenyl)methyl]ethane-1,2-diamine

>  <Synonyms>  (18) 
(+-)-N1-{trans-4'-[(6"-amino-4"-methylpyridin-2"-yl)methyl]pyrrolidin-3'-yl}-N2-(3'-chlorobenzyl)ethane-1,2-diamine

>  <Type>  (18) 
NON-POLYMER

>  <Formula>  (18) 
C20 H28 Cl N5

>  <ObservedFormula>  (18) 
C20 Cl N5

>  <MolecularWeight>  (18) 
373.923

>  <ModifiedDate>  (18) 
2011-06-04

>  <Parent>  (18) 


>  <OneLetterCode>  (18) 


>  <SubcomponentList>  (18) 


>  <AmbiguousFlag>  (18) 


>  <InsertionCode>  (18) 


>  <InstanceId>  (18) 
3DQT_JI7_B_800

>  <ChemCompId>  (18) 
JI7

>  <PdbId>  (18) 
3DQT

>  <ResidueNumber>  (18) 
800

>  <InChI>  (18) 
InChI=1S/C20H28ClN5/c1-14-7-18(26-20(22)8-14)10-16-12-24-13-19(16)25-6-5-23-11-15-3-2-4-17(21)9-15/h2-4,7-9,16,19,23-25H,5-6,10-13H2,1H3,(H2,22,26)/t16-,19-/m0/s1

>  <InChIKey>  (18) 
VWCMAGONQJHIJZ-LPHOPBHVSA-N

>  <SMILES>  (18) 
Cc1cc(nc(c1)N)C[C@H]2CNC[C@@H]2NCCNCc3cccc(c3)Cl

>  <MissingHeavyAtoms>  (18) 
0

>  <Model>  (18) 
1

>  <AltIds>  (18) 


>  <pKI>  (18) 
4.02

>  <ChemblID>  (18) 
CHEMBL526688

>  <standardized_canonical_smiles>  (18) 
Cc1cc(N)nc(C[C@H]2CNC[C@@H]2NCCNCc2cccc(Cl)c2)c1

$$$$
3JWZ_J14_B_800
     RDKit          3D

 27 29  0  0  0  0  0  0  0  0999 V2000
   -0.2450    2.5650   64.0580 C   0  0  0  0  0  0  0  0  0  0  0  0
   -0.1460    3.9990   64.2680 N   0  0  0  0  0  0  0  0  0  0  0  0
    0.4490    2.1540   62.7710 C   0  0  0  0  0  0  0  0  0  0  0  0
    0.1680    0.7830   62.4140 N   0  0  0  0  0  0  0  0  0  0  0  0
    1.2820   -0.0720   62.0590 C   0  0  0  0  0  0  0  0  0  0  0  0
    0.9850   -0.8870   60.8160 C   0  0  0  0  0  0  0  0  0  0  0  0
   -3.0530    5.7670   65.1840 N   0  0  0  0  0  0  0  0  0  0  0  0
    0.3200   -2.1840   61.2040 C   0  0  0  0  0  0  0  0  0  0  0  0
   -0.0790    8.9660   66.3680 N   0  0  0  0  0  0  0  0  0  0  0  0
   -1.0620   -2.3180   61.0670 C   0  0  0  0  0  0  0  0  0  0  0  0
   -1.6990   -3.5130   61.4160 C   0  0  0  0  0  0  0  0  0  0  0  0
   -3.0420   -3.6290   61.2810 F   0  0  0  0  0  0  0  0  0  0  0  0
   -0.9380   -4.5850   61.9020 C   0  0  0  0  0  0  0  0  0  0  0  0
    0.4470   -4.4520   62.0380 C   0  0  0  0  0  0  0  0  0  0  0  0
    1.0740   -3.2510   61.6900 C   0  0  0  0  0  0  0  0  0  0  0  0
   -2.4770    4.4510   64.9420 C   0  0  0  0  0  0  0  0  0  0  0  0
    0.4390    7.8200   66.8760 C   0  0  0  0  0  0  0  0  0  0  0  0
   -0.9910    4.6330   65.2540 C   0  0  0  0  0  0  0  0  0  0  0  0
    1.0490    7.8150   68.1220 C   0  0  0  0  0  0  0  0  0  0  0  0
   -0.7620    6.1310   65.2790 C   0  0  0  0  0  0  0  0  0  0  0  0
    1.1280    8.9770   68.8560 C   0  0  0  0  0  0  0  0  0  0  0  0
   -2.0890    6.7290   65.7030 C   0  0  0  0  0  0  0  0  0  0  0  0
    0.5980   10.1530   68.3450 C   0  0  0  0  0  0  0  0  0  0  0  0
   -0.0130   10.1180   67.0870 C   0  0  0  0  0  0  0  0  0  0  0  0
   -0.5340   11.2580   66.5820 N   0  0  0  0  0  0  0  0  0  0  0  0
    0.4280    6.4900   66.1560 C   0  0  0  0  0  0  0  0  0  0  0  0
    1.7830    8.9250   70.2030 C   0  0  0  0  0  0  0  0  0  0  0  0
  2  1  1  0
  3  1  1  0
 18  2  1  0
  4  3  1  0
  5  4  1  0
  6  5  1  0
  8  6  1  0
 16  7  1  0
 22  7  1  0
 10  8  2  0
 15  8  1  0
 17  9  2  0
 24  9  1  0
 11 10  1  0
 12 11  1  0
 13 11  2  0
 14 13  1  0
 15 14  2  0
 18 16  1  0
 19 17  1  0
 26 17  1  0
 20 18  1  0
 21 19  2  0
 22 20  1  0
 26 20  1  0
 23 21  1  0
 27 21  1  0
 24 23  2  0
 25 24  1  0
A    1
C1
A    2
N1
A    3
C2
A    4
N2
A    5
C3
A    6
C4
A    7
N1'
A    8
C11
A    9
N11
A   10
C12
A   11
C13
A   12
F13
A   13
C14
A   14
C15
A   15
C16
A   16
C2'
A   17
C21
A   18
C3'
A   19
C31
A   20
C4'
A   21
C41
A   22
C5'
A   23
C51
A   24
C61
A   25
N61
A   26
C71
A   27
C81
M  END
>  <Id>  (19) 
3JWZ_J14_B_800

>  <ChainId>  (19) 
B

>  <AsymId>  (19) 
M

>  <SeqNum>  (19) 
800

>  <Name>  (19) 
N-{(3S,4R)-4-[(6-amino-4-methylpyridin-2-yl)methyl]pyrrolidin-3-yl}-N'-[2-(3-fluorophenyl)ethyl]ethane-1,2-diamine

>  <SystematicName>  (19) 
N-[(3S,4R)-4-[(6-azanyl-4-methyl-pyridin-2-yl)methyl]pyrrolidin-3-yl]-N'-[2-(3-fluorophenyl)ethyl]ethane-1,2-diamine

>  <Synonyms>  (19) 
N1-{(3'S,4'R)-4'-[(6"-amino-4"-methylpyridin-2"-yl)methyl]pyrrolidin-3'-yl}-N2-(3'-fluorophenethyl)ethane-1,2-diamine tetrahydrochloride

>  <Type>  (19) 
NON-POLYMER

>  <Formula>  (19) 
C21 H30 F N5

>  <ObservedFormula>  (19) 
C21 F N5

>  <MolecularWeight>  (19) 
371.495

>  <ModifiedDate>  (19) 
2011-06-04

>  <Parent>  (19) 


>  <OneLetterCode>  (19) 


>  <SubcomponentList>  (19) 


>  <AmbiguousFlag>  (19) 
N

>  <InsertionCode>  (19) 


>  <InstanceId>  (19) 
3JWZ_J14_B_800

>  <ChemCompId>  (19) 
J14

>  <PdbId>  (19) 
3JWZ

>  <ResidueNumber>  (19) 
800

>  <InChI>  (19) 
InChI=1S/C21H30FN5/c1-15-9-19(27-21(23)10-15)12-17-13-25-14-20(17)26-8-7-24-6-5-16-3-2-4-18(22)11-16/h2-4,9-11,17,20,24-26H,5-8,12-14H2,1H3,(H2,23,27)/t17-,20-/m1/s1

>  <InChIKey>  (19) 
PUOKPLCASUFBAN-YLJYHZDGSA-N

>  <SMILES>  (19) 
Cc1cc(nc(c1)N)C[C@@H]2CNC[C@H]2NCCNCCc3cccc(c3)F

>  <MissingHeavyAtoms>  (19) 
0

>  <Model>  (19) 
1

>  <AltIds>  (19) 


>  <pKI>  (19) 
4.31

>  <ChemblID>  (19) 
CHEMBL1233717

>  <standardized_canonical_smiles>  (19) 
Cc1cc(N)nc(C[C@@H]2CNC[C@H]2NCCNCCc2cccc(F)c2)c1

$$$$
3N5Q_XFN_B_800
     RDKit          3D

 27 29  0  0  0  0  0  0  0  0999 V2000
   -0.2210    2.1300   64.8210 C   0  0  0  0  0  0  0  0  0  0  0  0
   -0.7450    2.4960   66.0630 C   0  0  0  0  0  0  0  0  0  0  0  0
   -0.8820    1.5660   67.0480 N   0  0  0  0  0  0  0  0  0  0  0  0
   -1.1210    3.8270   66.2670 C   0  0  0  0  0  0  0  0  0  0  0  0
   -0.9800    4.7680   65.2400 C   0  0  0  0  0  0  0  0  0  0  0  0
   -0.4540    4.3840   64.0030 C   0  0  0  0  0  0  0  0  0  0  0  0
   -0.0820    3.0570   63.7780 C   0  0  0  0  0  0  0  0  0  0  0  0
   -1.3520    6.2160   65.4920 C   0  0  0  0  0  0  0  0  0  0  0  0
    0.4790    2.6470   62.4190 C   0  0  0  0  0  0  0  0  0  0  0  0
   -0.3320    1.5680   61.6850 C   0  0  0  0  0  0  0  0  0  0  0  0
    1.2500   -1.6310   62.8470 C   0  0  0  0  0  0  0  0  0  0  0  0
    1.0380   -0.4470   62.2210 N   0  0  0  0  0  0  0  0  0  0  0  0
   -0.1330    0.2330   62.3850 C   0  0  0  0  0  0  0  0  0  0  0  0
   -1.1420   -0.2870   63.2140 C   0  0  0  0  0  0  0  0  0  0  0  0
   -0.9410   -1.5020   63.8730 C   0  0  0  0  0  0  0  0  0  0  0  0
    0.2680   -2.1780   63.6800 C   0  0  0  0  0  0  0  0  0  0  0  0
    2.4220   -2.2790   62.6510 N   0  0  0  0  0  0  0  0  0  0  0  0
   -2.0190   -2.0820   64.7640 C   0  0  0  0  0  0  0  0  0  0  0  0
   -0.0270    6.9870   65.4460 C   0  0  0  0  0  0  0  0  0  0  0  0
    0.2400    8.0590   66.4730 C   0  0  0  0  0  0  0  0  0  0  0  0
    0.8880    7.7880   67.6600 C   0  0  0  0  0  0  0  0  0  0  0  0
    1.1310    8.8140   68.5630 C   0  0  0  0  0  0  0  0  0  0  0  0
    0.7400   10.0980   68.2700 C   0  0  0  0  0  0  0  0  0  0  0  0
    0.1050   10.3250   67.0630 C   0  0  0  0  0  0  0  0  0  0  0  0
   -0.1160    9.3140   66.2030 N   0  0  0  0  0  0  0  0  0  0  0  0
   -0.2990   11.5730   66.7230 N   0  0  0  0  0  0  0  0  0  0  0  0
    1.8250    8.5310   69.8630 C   0  0  0  0  0  0  0  0  0  0  0  0
  2  1  2  0
  7  1  1  0
  3  2  1  0
  4  2  1  0
  5  4  2  0
  6  5  1  0
  8  5  1  0
  7  6  2  0
  9  7  1  0
 19  8  1  0
 10  9  1  0
 13 10  1  0
 12 11  2  0
 16 11  1  0
 17 11  1  0
 13 12  1  0
 14 13  2  0
 15 14  1  0
 16 15  2  0
 18 15  1  0
 20 19  1  0
 21 20  2  0
 25 20  1  0
 22 21  1  0
 23 22  2  0
 27 22  1  0
 24 23  1  0
 25 24  2  0
 26 24  1  0
A    1
C01
A    2
C02
A    3
N02
A    4
C03
A    5
C04
A    6
C05
A    7
C06
A    8
C07
A    9
C08
A   10
C09
A   11
C11
A   12
N12
A   13
C13
A   14
C14
A   15
C15
A   16
C16
A   17
N17
A   18
C18
A   19
C34
A   20
C35
A   21
C36
A   22
C37
A   23
C38
A   24
C39
A   25
N40
A   26
N41
A   27
C42
M  END
>  <Id>  (20) 
3N5Q_XFN_B_800

>  <ChainId>  (20) 
B

>  <AsymId>  (20) 
K

>  <SeqNum>  (20) 
800

>  <Name>  (20) 
6,6'-[(5-aminobenzene-1,3-diyl)diethane-2,1-diyl]bis(4-methylpyridin-2-amine)

>  <SystematicName>  (20) 
6-[2-[3-azanyl-5-[2-(6-azanyl-4-methyl-pyridin-2-yl)ethyl]phenyl]ethyl]-4-methyl-pyridin-2-amine

>  <Synonyms>  (20) 


>  <Type>  (20) 
NON-POLYMER

>  <Formula>  (20) 
C22 H27 N5

>  <ObservedFormula>  (20) 
C22 N5

>  <MolecularWeight>  (20) 
361.483

>  <ModifiedDate>  (20) 
2011-06-04

>  <Parent>  (20) 


>  <OneLetterCode>  (20) 


>  <SubcomponentList>  (20) 


>  <AmbiguousFlag>  (20) 
N

>  <InsertionCode>  (20) 


>  <InstanceId>  (20) 
3N5Q_XFN_B_800

>  <ChemCompId>  (20) 
XFN

>  <PdbId>  (20) 
3N5Q

>  <ResidueNumber>  (20) 
800

>  <InChI>  (20) 
InChI=1S/C22H27N5/c1-14-7-19(26-21(24)9-14)5-3-16-11-17(13-18(23)12-16)4-6-20-8-15(2)10-22(25)27-20/h7-13H,3-6,23H2,1-2H3,(H2,24,26)(H2,25,27)

>  <InChIKey>  (20) 
WZQDEYWNUPXXDO-UHFFFAOYSA-N

>  <SMILES>  (20) 
Cc1cc(nc(c1)N)CCc2cc(cc(c2)N)CCc3cc(cc(n3)N)C

>  <MissingHeavyAtoms>  (20) 
0

>  <Model>  (20) 
1

>  <AltIds>  (20) 


>  <pKI>  (20) 
5.31

>  <ChemblID>  (20) 
CHEMBL1615292

>  <standardized_canonical_smiles>  (20) 
Cc1cc(N)nc(CCc2cc(N)cc(CCc3cc(C)cc(N)n3)c2)c1

$$$$
3N5P_XFM_B_800
     RDKit          3D

 26 28  0  0  0  0  0  0  0  0999 V2000
   -0.2000    7.9800   66.9110 N   0  0  0  0  0  0  0  0  0  0  0  0
   -0.0270    6.6920   67.3370 C   0  0  0  0  0  0  0  0  0  0  0  0
    0.7240    6.4220   68.4890 C   0  0  0  0  0  0  0  0  0  0  0  0
    1.2690    7.4690   69.2030 C   0  0  0  0  0  0  0  0  0  0  0  0
    1.0500    8.7780   68.7680 C   0  0  0  0  0  0  0  0  0  0  0  0
    0.3090    9.0190   67.6110 C   0  0  0  0  0  0  0  0  0  0  0  0
   -0.6040    5.5280   66.5580 C   0  0  0  0  0  0  0  0  0  0  0  0
    0.3920    5.1340   65.4670 C   0  0  0  0  0  0  0  0  0  0  0  0
    1.4730    4.2140   66.0110 C   0  0  0  0  0  0  0  0  0  0  0  0
    1.2650    2.8710   65.9780 N   0  0  0  0  0  0  0  0  0  0  0  0
    2.1840    1.9980   66.4540 C   0  0  0  0  0  0  0  0  0  0  0  0
    3.3940    2.4540   67.0110 C   0  0  0  0  0  0  0  0  0  0  0  0
    3.6490    3.8300   67.0650 C   0  0  0  0  0  0  0  0  0  0  0  0
    2.6760    4.7130   66.5520 C   0  0  0  0  0  0  0  0  0  0  0  0
    1.8650    0.5260   66.3890 C   0  0  0  0  0  0  0  0  0  0  0  0
    2.1750    0.0370   64.9820 C   0  0  0  0  0  0  0  0  0  0  0  0
    1.6730   -1.3680   64.7420 C   0  0  0  0  0  0  0  0  0  0  0  0
    2.5830   -2.3960   64.4980 C   0  0  0  0  0  0  0  0  0  0  0  0
    2.1050   -3.6890   64.2650 C   0  0  0  0  0  0  0  0  0  0  0  0
    0.7640   -3.9460   64.2880 N   0  0  0  0  0  0  0  0  0  0  0  0
   -0.1370   -2.9470   64.5290 C   0  0  0  0  0  0  0  0  0  0  0  0
    0.3000   -1.6420   64.7620 C   0  0  0  0  0  0  0  0  0  0  0  0
   -1.4680   -3.2010   64.5420 N   0  0  0  0  0  0  0  0  0  0  0  0
    3.0880   -4.7980   63.9940 C   0  0  0  0  0  0  0  0  0  0  0  0
    2.0740    7.2010   70.4480 C   0  0  0  0  0  0  0  0  0  0  0  0
    0.1240   10.2950   67.1960 N   0  0  0  0  0  0  0  0  0  0  0  0
  2  1  2  0
  6  1  1  0
  3  2  1  0
  7  2  1  0
  4  3  2  0
  5  4  1  0
 25  4  1  0
  6  5  2  0
 26  6  1  0
  8  7  1  0
  9  8  1  0
 10  9  2  0
 14  9  1  0
 11 10  1  0
 12 11  2  0
 15 11  1  0
 13 12  1  0
 14 13  2  0
 16 15  1  0
 17 16  1  0
 18 17  2  0
 22 17  1  0
 19 18  1  0
 20 19  2  0
 24 19  1  0
 21 20  1  0
 22 21  2  0
 23 21  1  0
A    1
N1
A    2
C2
A    3
C3
A    4
C4
A    5
C5
A    6
C6
A    7
C7
A    8
C8
A    9
C9
A   10
N10
A   11
C11
A   12
C12
A   13
C13
A   14
C14
A   15
C15
A   16
C16
A   17
C17
A   18
C18
A   19
C19
A   20
N20
A   21
C21
A   22
C22
A   23
N23
A   24
C24
A   25
C25
A   26
N26
M  END
>  <Id>  (21) 
3N5P_XFM_B_800

>  <ChainId>  (21) 
B

>  <AsymId>  (21) 
Q

>  <SeqNum>  (21) 
800

>  <Name>  (21) 
6-(2-{6-[2-(2-amino-6-methylpyridin-4-yl)ethyl]pyridin-2-yl}ethyl)-4-methylpyridin-2-amine

>  <SystematicName>  (21) 
6-[2-[6-[2-(2-azanyl-6-methyl-pyridin-4-yl)ethyl]pyridin-2-yl]ethyl]-4-methyl-pyridin-2-amine

>  <Synonyms>  (21) 


>  <Type>  (21) 
NON-POLYMER

>  <Formula>  (21) 
C21 H25 N5

>  <ObservedFormula>  (21) 
C21 N5

>  <MolecularWeight>  (21) 
347.457

>  <ModifiedDate>  (21) 
2011-06-04

>  <Parent>  (21) 


>  <OneLetterCode>  (21) 


>  <SubcomponentList>  (21) 


>  <AmbiguousFlag>  (21) 
N

>  <InsertionCode>  (21) 


>  <InstanceId>  (21) 
3N5P_XFM_B_800

>  <ChemCompId>  (21) 
XFM

>  <PdbId>  (21) 
3N5P

>  <ResidueNumber>  (21) 
800

>  <InChI>  (21) 
InChI=1S/C21H25N5/c1-14-10-19(26-20(22)11-14)9-8-18-5-3-4-17(25-18)7-6-16-12-15(2)24-21(23)13-16/h3-5,10-13H,6-9H2,1-2H3,(H2,22,26)(H2,23,24)

>  <InChIKey>  (21) 
ZMKGFXFDYMNDSP-UHFFFAOYSA-N

>  <SMILES>  (21) 
Cc1cc(nc(c1)N)CCc2cccc(n2)CCc3cc(nc(c3)N)C

>  <MissingHeavyAtoms>  (21) 
0

>  <Model>  (21) 
1

>  <AltIds>  (21) 


>  <pKI>  (21) 
4.7

>  <ChemblID>  (21) 
CHEMBL1615291

>  <standardized_canonical_smiles>  (21) 
Cc1cc(N)nc(CCc2cccc(CCc3cc(C)nc(N)c3)n2)c1

$$$$
3N5S_XFK_B_800
     RDKit          3D

 26 28  0  0  0  0  0  0  0  0999 V2000
   -0.3310    9.3870   66.1610 N   0  0  0  0  0  0  0  0  0  0  0  0
   -0.0630   10.4000   66.9980 C   0  0  0  0  0  0  0  0  0  0  0  0
   -0.4650   11.6290   66.6140 N   0  0  0  0  0  0  0  0  0  0  0  0
    0.6180   10.1830   68.2040 C   0  0  0  0  0  0  0  0  0  0  0  0
    0.9960    8.8800   68.5150 C   0  0  0  0  0  0  0  0  0  0  0  0
    0.7040    7.8440   67.6250 C   0  0  0  0  0  0  0  0  0  0  0  0
    0.0250    8.1230   66.4300 C   0  0  0  0  0  0  0  0  0  0  0  0
    1.7130    8.5780   69.8050 C   0  0  0  0  0  0  0  0  0  0  0  0
   -0.3400    7.0710   65.4000 C   0  0  0  0  0  0  0  0  0  0  0  0
   -0.5110    5.6940   66.0070 C   0  0  0  0  0  0  0  0  0  0  0  0
   -2.6970    3.7100   63.6850 N   0  0  0  0  0  0  0  0  0  0  0  0
   -2.2730    4.6030   64.5950 C   0  0  0  0  0  0  0  0  0  0  0  0
   -0.9320    4.6880   64.9690 C   0  0  0  0  0  0  0  0  0  0  0  0
   -0.0130    3.8140   64.3940 C   0  0  0  0  0  0  0  0  0  0  0  0
   -0.4880    2.8970   63.4480 C   0  0  0  0  0  0  0  0  0  0  0  0
   -1.8430    2.8630   63.1070 C   0  0  0  0  0  0  0  0  0  0  0  0
    0.4520    1.9340   62.7730 C   0  0  0  0  0  0  0  0  0  0  0  0
    0.2250    0.5640   63.3930 C   0  0  0  0  0  0  0  0  0  0  0  0
    2.6130   -0.1100   62.9450 C   0  0  0  0  0  0  0  0  0  0  0  0
    3.5620   -0.9800   62.4200 C   0  0  0  0  0  0  0  0  0  0  0  0
    4.8900   -0.6970   62.5660 N   0  0  0  0  0  0  0  0  0  0  0  0
    3.1180   -2.1000   61.7790 N   0  0  0  0  0  0  0  0  0  0  0  0
    1.7770   -2.3740   61.6470 C   0  0  0  0  0  0  0  0  0  0  0  0
    0.8190   -1.5180   62.1630 C   0  0  0  0  0  0  0  0  0  0  0  0
    1.2470   -0.3790   62.8200 C   0  0  0  0  0  0  0  0  0  0  0  0
    1.2950   -3.6120   60.9430 C   0  0  0  0  0  0  0  0  0  0  0  0
  2  1  2  0
  7  1  1  0
  3  2  1  0
  4  2  1  0
  5  4  2  0
  6  5  1  0
  8  5  1  0
  7  6  2  0
  9  7  1  0
 10  9  1  0
 13 10  1  0
 12 11  2  0
 16 11  1  0
 13 12  1  0
 14 13  2  0
 15 14  1  0
 16 15  2  0
 17 15  1  0
 18 17  1  0
 25 18  1  0
 20 19  2  0
 25 19  1  0
 21 20  1  0
 22 20  1  0
 23 22  2  0
 24 23  1  0
 26 23  1  0
 25 24  2  0
A    1
N01
A    2
C02
A    3
N02
A    4
C03
A    5
C04
A    6
C05
A    7
C06
A    8
C07
A    9
C08
A   10
C09
A   11
N11
A   12
C12
A   13
C13
A   14
C14
A   15
C15
A   16
C16
A   17
C17
A   18
C18
A   19
C21
A   20
C22
A   21
N22
A   22
N23
A   23
C24
A   24
C25
A   25
C26
A   26
C27
M  END
>  <Id>  (22) 
3N5S_XFK_B_800

>  <ChainId>  (22) 
B

>  <AsymId>  (22) 
O

>  <SeqNum>  (22) 
800

>  <Name>  (22) 
6-(2-{5-[2-(2-amino-6-methylpyridin-4-yl)ethyl]pyridin-3-yl}ethyl)-4-methylpyridin-2-amine

>  <SystematicName>  (22) 
6-[2-[5-[2-(2-azanyl-6-methyl-pyridin-4-yl)ethyl]pyridin-3-yl]ethyl]-4-methyl-pyridin-2-amine

>  <Synonyms>  (22) 


>  <Type>  (22) 
NON-POLYMER

>  <Formula>  (22) 
C21 H25 N5

>  <ObservedFormula>  (22) 
C21 N5

>  <MolecularWeight>  (22) 
347.457

>  <ModifiedDate>  (22) 
2011-06-04

>  <Parent>  (22) 


>  <OneLetterCode>  (22) 


>  <SubcomponentList>  (22) 


>  <AmbiguousFlag>  (22) 
N

>  <InsertionCode>  (22) 


>  <InstanceId>  (22) 
3N5S_XFK_B_800

>  <ChemCompId>  (22) 
XFK

>  <PdbId>  (22) 
3N5S

>  <ResidueNumber>  (22) 
800

>  <InChI>  (22) 
InChI=1S/C21H25N5/c1-14-7-19(26-20(22)8-14)6-5-18-10-17(12-24-13-18)4-3-16-9-15(2)25-21(23)11-16/h7-13H,3-6H2,1-2H3,(H2,22,26)(H2,23,25)

>  <InChIKey>  (22) 
RDXKSGCNYFTVRW-UHFFFAOYSA-N

>  <SMILES>  (22) 
Cc1cc(nc(c1)N)CCc2cc(cnc2)CCc3cc(nc(c3)N)C

>  <MissingHeavyAtoms>  (22) 
0

>  <Model>  (22) 
1

>  <AltIds>  (22) 


>  <pKI>  (22) 
4.79

>  <ChemblID>  (22) 
CHEMBL1615289

>  <standardized_canonical_smiles>  (22) 
Cc1cc(N)nc(CCc2cncc(CCc3cc(C)nc(N)c3)c2)c1

$$$$
3N5T_XFJ_B_800
     RDKit          3D

 26 28  0  0  0  0  0  0  0  0999 V2000
   -0.1350    9.2270   66.1540 N   0  0  0  0  0  0  0  0  0  0  0  0
    0.1260   10.2650   66.9710 C   0  0  0  0  0  0  0  0  0  0  0  0
   -0.2760   11.5100   66.6050 N   0  0  0  0  0  0  0  0  0  0  0  0
    0.8130   10.0620   68.1580 C   0  0  0  0  0  0  0  0  0  0  0  0
    1.2030    8.7780   68.4840 C   0  0  0  0  0  0  0  0  0  0  0  0
    0.9270    7.7230   67.6290 C   0  0  0  0  0  0  0  0  0  0  0  0
    0.2380    7.9700   66.4460 C   0  0  0  0  0  0  0  0  0  0  0  0
    1.9300    8.5290   69.7710 C   0  0  0  0  0  0  0  0  0  0  0  0
   -0.0990    6.8880   65.4520 C   0  0  0  0  0  0  0  0  0  0  0  0
   -0.4770    5.5760   66.1060 C   0  0  0  0  0  0  0  0  0  0  0  0
   -2.6100    3.5410   63.7850 N   0  0  0  0  0  0  0  0  0  0  0  0
   -2.1990    4.4500   64.6880 C   0  0  0  0  0  0  0  0  0  0  0  0
   -0.8680    4.5440   65.0730 C   0  0  0  0  0  0  0  0  0  0  0  0
    0.0580    3.6750   64.5170 C   0  0  0  0  0  0  0  0  0  0  0  0
   -0.3900    2.7470   63.5820 C   0  0  0  0  0  0  0  0  0  0  0  0
   -1.7360    2.6910   63.2290 C   0  0  0  0  0  0  0  0  0  0  0  0
    0.5590    1.8010   62.9170 C   0  0  0  0  0  0  0  0  0  0  0  0
    0.3990    0.4760   63.6150 C   0  0  0  0  0  0  0  0  0  0  0  0
    2.7160   -0.2140   63.0710 N   0  0  0  0  0  0  0  0  0  0  0  0
    3.6190   -1.0390   62.4940 C   0  0  0  0  0  0  0  0  0  0  0  0
    4.9470   -0.7590   62.6320 N   0  0  0  0  0  0  0  0  0  0  0  0
    3.1420   -2.1550   61.7750 C   0  0  0  0  0  0  0  0  0  0  0  0
    1.7650   -2.3960   61.6640 C   0  0  0  0  0  0  0  0  0  0  0  0
    0.8780   -1.5280   62.2670 C   0  0  0  0  0  0  0  0  0  0  0  0
    1.3780   -0.4470   62.9680 C   0  0  0  0  0  0  0  0  0  0  0  0
    1.1800   -3.5670   60.9140 C   0  0  0  0  0  0  0  0  0  0  0  0
  2  1  2  0
  7  1  1  0
  3  2  1  0
  4  2  1  0
  5  4  2  0
  6  5  1  0
  8  5  1  0
  7  6  2  0
  9  7  1  0
 10  9  1  0
 13 10  1  0
 12 11  2  0
 16 11  1  0
 13 12  1  0
 14 13  2  0
 15 14  1  0
 16 15  2  0
 17 15  1  0
 18 17  1  0
 25 18  1  0
 20 19  2  0
 25 19  1  0
 21 20  1  0
 22 20  1  0
 23 22  2  0
 24 23  1  0
 26 23  1  0
 25 24  2  0
A    1
N01
A    2
C02
A    3
N02
A    4
C03
A    5
C04
A    6
C05
A    7
C06
A    8
C07
A    9
C08
A   10
C09
A   11
N11
A   12
C12
A   13
C13
A   14
C14
A   15
C15
A   16
C16
A   17
C17
A   18
C18
A   19
N21
A   20
C22
A   21
N22
A   22
C23
A   23
C24
A   24
C25
A   25
C26
A   26
C27
M  END
>  <Id>  (23) 
3N5T_XFJ_B_800

>  <ChainId>  (23) 
B

>  <AsymId>  (23) 
M

>  <SeqNum>  (23) 
800

>  <Name>  (23) 
6,6'-(pyridine-3,5-diyldiethane-2,1-diyl)bis(4-methylpyridin-2-amine)

>  <SystematicName>  (23) 
6-[2-[5-[2-(6-azanyl-4-methyl-pyridin-2-yl)ethyl]pyridin-3-yl]ethyl]-4-methyl-pyridin-2-amine

>  <Synonyms>  (23) 


>  <Type>  (23) 
NON-POLYMER

>  <Formula>  (23) 
C21 H25 N5

>  <ObservedFormula>  (23) 
C21 N5

>  <MolecularWeight>  (23) 
347.457

>  <ModifiedDate>  (23) 
2011-06-04

>  <Parent>  (23) 


>  <OneLetterCode>  (23) 


>  <SubcomponentList>  (23) 


>  <AmbiguousFlag>  (23) 
N

>  <InsertionCode>  (23) 


>  <InstanceId>  (23) 
3N5T_XFJ_B_800

>  <ChemCompId>  (23) 
XFJ

>  <PdbId>  (23) 
3N5T

>  <ResidueNumber>  (23) 
800

>  <InChI>  (23) 
InChI=1S/C21H25N5/c1-14-7-18(25-20(22)9-14)5-3-16-11-17(13-24-12-16)4-6-19-8-15(2)10-21(23)26-19/h7-13H,3-6H2,1-2H3,(H2,22,25)(H2,23,26)

>  <InChIKey>  (23) 
KZHFSPGMRFCRCE-UHFFFAOYSA-N

>  <SMILES>  (23) 
Cc1cc(nc(c1)N)CCc2cc(cnc2)CCc3cc(cc(n3)N)C

>  <MissingHeavyAtoms>  (23) 
0

>  <Model>  (23) 
1

>  <AltIds>  (23) 


>  <pKI>  (23) 
5.57

>  <ChemblID>  (23) 
CHEMBL1615288

>  <standardized_canonical_smiles>  (23) 
Cc1cc(N)nc(CCc2cncc(CCc3cc(C)cc(N)n3)c2)c1

$$$$
3N5R_XFH_B_800
     RDKit          3D

 26 28  0  0  0  0  0  0  0  0999 V2000
   -0.8010    9.5870   66.3620 N   0  0  0  0  0  0  0  0  0  0  0  0
   -0.3180   10.7170   66.9160 C   0  0  0  0  0  0  0  0  0  0  0  0
   -0.6640   11.9010   66.3560 N   0  0  0  0  0  0  0  0  0  0  0  0
    0.5220   10.6520   68.0300 C   0  0  0  0  0  0  0  0  0  0  0  0
    0.8470    9.4120   68.5590 C   0  0  0  0  0  0  0  0  0  0  0  0
    0.3330    8.2610   67.9690 C   0  0  0  0  0  0  0  0  0  0  0  0
   -0.4990    8.3690   66.8500 C   0  0  0  0  0  0  0  0  0  0  0  0
    1.7330    9.3080   69.7610 C   0  0  0  0  0  0  0  0  0  0  0  0
   -1.0840    7.1600   66.1610 C   0  0  0  0  0  0  0  0  0  0  0  0
   -0.0100    6.4810   65.3160 C   0  0  0  0  0  0  0  0  0  0  0  0
   -1.4360    2.9430   65.5780 C   0  0  0  0  0  0  0  0  0  0  0  0
   -1.3220    4.3350   65.4610 C   0  0  0  0  0  0  0  0  0  0  0  0
   -0.0700    4.9690   65.4330 C   0  0  0  0  0  0  0  0  0  0  0  0
    1.1080    4.2050   65.5170 C   0  0  0  0  0  0  0  0  0  0  0  0
    1.0080    2.8120   65.6340 C   0  0  0  0  0  0  0  0  0  0  0  0
   -0.2600    2.1970   65.6650 C   0  0  0  0  0  0  0  0  0  0  0  0
    2.2570    1.9590   65.7190 C   0  0  0  0  0  0  0  0  0  0  0  0
    1.9010    0.5020   66.0530 C   0  0  0  0  0  0  0  0  0  0  0  0
    1.1760    0.1390   63.6200 C   0  0  0  0  0  0  0  0  0  0  0  0
    0.9550   -0.7070   62.5390 C   0  0  0  0  0  0  0  0  0  0  0  0
    0.5060   -0.1730   61.3690 N   0  0  0  0  0  0  0  0  0  0  0  0
    1.1960   -2.0440   62.6720 N   0  0  0  0  0  0  0  0  0  0  0  0
    1.6460   -2.5890   63.8430 C   0  0  0  0  0  0  0  0  0  0  0  0
    1.8660   -1.7600   64.9420 C   0  0  0  0  0  0  0  0  0  0  0  0
    1.6430   -0.3830   64.8360 C   0  0  0  0  0  0  0  0  0  0  0  0
    1.8980   -4.0780   63.9810 C   0  0  0  0  0  0  0  0  0  0  0  0
  2  1  2  0
  7  1  1  0
  3  2  1  0
  4  2  1  0
  5  4  2  0
  6  5  1  0
  8  5  1  0
  7  6  2  0
  9  7  1  0
 10  9  1  0
 13 10  1  0
 12 11  2  0
 16 11  1  0
 13 12  1  0
 14 13  2  0
 15 14  1  0
 16 15  2  0
 17 15  1  0
 18 17  1  0
 25 18  1  0
 20 19  2  0
 25 19  1  0
 21 20  1  0
 22 20  1  0
 23 22  2  0
 24 23  1  0
 26 23  1  0
 25 24  2  0
A    1
N01
A    2
C02
A    3
N02
A    4
C03
A    5
C04
A    6
C05
A    7
C06
A    8
C07
A    9
C08
A   10
C09
A   11
C11
A   12
C12
A   13
C13
A   14
C14
A   15
C15
A   16
C16
A   17
C17
A   18
C18
A   19
C21
A   20
C22
A   21
N22
A   22
N23
A   23
C24
A   24
C25
A   25
C26
A   26
C27
M  END
>  <Id>  (24) 
3N5R_XFH_B_800

>  <ChainId>  (24) 
B

>  <AsymId>  (24) 
P

>  <SeqNum>  (24) 
800

>  <Name>  (24) 
6-(2-{3-[2-(2-amino-6-methylpyridin-4-yl)ethyl]phenyl}ethyl)-4-methylpyridin-2-amine

>  <SystematicName>  (24) 
6-[2-[3-[2-(2-azanyl-6-methyl-pyridin-4-yl)ethyl]phenyl]ethyl]-4-methyl-pyridin-2-amine

>  <Synonyms>  (24) 


>  <Type>  (24) 
NON-POLYMER

>  <Formula>  (24) 
C22 H26 N4

>  <ObservedFormula>  (24) 
C22 N4

>  <MolecularWeight>  (24) 
346.469

>  <ModifiedDate>  (24) 
2011-06-04

>  <Parent>  (24) 


>  <OneLetterCode>  (24) 


>  <SubcomponentList>  (24) 


>  <AmbiguousFlag>  (24) 
N

>  <InsertionCode>  (24) 


>  <InstanceId>  (24) 
3N5R_XFH_B_800

>  <ChemCompId>  (24) 
XFH

>  <PdbId>  (24) 
3N5R

>  <ResidueNumber>  (24) 
800

>  <InChI>  (24) 
InChI=1S/C22H26N4/c1-15-10-20(26-21(23)11-15)9-8-18-5-3-4-17(13-18)6-7-19-12-16(2)25-22(24)14-19/h3-5,10-14H,6-9H2,1-2H3,(H2,23,26)(H2,24,25)

>  <InChIKey>  (24) 
JVYPSLPLMFVFFX-UHFFFAOYSA-N

>  <SMILES>  (24) 
Cc1cc(nc(c1)N)CCc2cccc(c2)CCc3cc(nc(c3)N)C

>  <MissingHeavyAtoms>  (24) 
0

>  <Model>  (24) 
1

>  <AltIds>  (24) 


>  <pKI>  (24) 
5.38

>  <ChemblID>  (24) 
CHEMBL1615287

>  <standardized_canonical_smiles>  (24) 
Cc1cc(N)nc(CCc2cccc(CCc3cc(C)nc(N)c3)c2)c1

$$$$
4IMX_1EV_B_503
     RDKit          3D

 28 30  0  0  0  0  0  0  0  0999 V2000
   -3.6920    0.7870   65.7440 N   0  0  0  0  0  0  0  0  0  0  0  0
   -2.9000    1.5100   65.3020 C   0  0  0  0  0  0  0  0  0  0  0  0
   -2.0210    2.3000   64.7970 C   0  0  0  0  0  0  0  0  0  0  0  0
   -1.1490    1.8710   63.7990 C   0  0  0  0  0  0  0  0  0  0  0  0
   -1.9360    3.6110   65.2410 C   0  0  0  0  0  0  0  0  0  0  0  0
   -1.0070    4.5290   64.7350 C   0  0  0  0  0  0  0  0  0  0  0  0
   -1.1060    5.9200   65.3740 C   0  0  0  0  0  0  0  0  0  0  0  0
    0.0970    6.8220   65.2150 C   0  0  0  0  0  0  0  0  0  0  0  0
    0.1880    7.9610   66.2190 C   0  0  0  0  0  0  0  0  0  0  0  0
   -0.2990    9.1770   65.8750 N   0  0  0  0  0  0  0  0  0  0  0  0
   -0.2030   10.2400   66.7060 C   0  0  0  0  0  0  0  0  0  0  0  0
   -0.7040   11.4310   66.2990 N   0  0  0  0  0  0  0  0  0  0  0  0
    0.4370   10.1210   67.9500 C   0  0  0  0  0  0  0  0  0  0  0  0
    0.9570    8.8740   68.3250 C   0  0  0  0  0  0  0  0  0  0  0  0
    0.8410    7.7900   67.4640 C   0  0  0  0  0  0  0  0  0  0  0  0
    1.5950    8.6890   69.6590 C   0  0  0  0  0  0  0  0  0  0  0  0
   -0.1180    4.0930   63.7270 C   0  0  0  0  0  0  0  0  0  0  0  0
   -0.2080    2.7550   63.2590 C   0  0  0  0  0  0  0  0  0  0  0  0
    0.6980    2.2000   62.1810 C   0  0  0  0  0  0  0  0  0  0  0  0
   -0.0120    1.2120   61.2450 C   0  0  0  0  0  0  0  0  0  0  0  0
    0.2800   -0.2200   61.6560 C   0  0  0  0  0  0  0  0  0  0  0  0
    1.1740   -0.4780   62.6510 N   0  0  0  0  0  0  0  0  0  0  0  0
    1.4380   -1.7530   63.0370 C   0  0  0  0  0  0  0  0  0  0  0  0
    2.3230   -2.0030   64.0340 N   0  0  0  0  0  0  0  0  0  0  0  0
    0.8000   -2.8290   62.4190 C   0  0  0  0  0  0  0  0  0  0  0  0
   -0.1230   -2.5990   61.4020 C   0  0  0  0  0  0  0  0  0  0  0  0
   -0.8180   -3.7720   60.7570 C   0  0  0  0  0  0  0  0  0  0  0  0
   -0.3870   -1.2770   61.0160 C   0  0  0  0  0  0  0  0  0  0  0  0
  2  1  3  0
  3  2  1  0
  4  3  2  0
  5  3  1  0
 18  4  1  0
  6  5  2  0
  7  6  1  0
 17  6  1  0
  8  7  1  0
  9  8  1  0
 10  9  2  0
 15  9  1  0
 11 10  1  0
 12 11  1  0
 13 11  2  0
 14 13  1  0
 15 14  2  0
 16 14  1  0
 18 17  2  0
 19 18  1  0
 20 19  1  0
 21 20  1  0
 22 21  2  0
 28 21  1  0
 23 22  1  0
 24 23  1  0
 25 23  2  0
 26 25  1  0
 27 26  1  0
 28 26  2  0
A    1
N10
A    2
C10
A    3
C11
A    4
C16
A    5
C12
A    6
C13
A    7
C09
A    8
C08
A    9
C06
A   10
N01
A   11
C02
A   12
N02
A   13
C03
A   14
C04
A   15
C05
A   16
C07
A   17
C14
A   18
C15
A   19
C29
A   20
C28
A   21
C26
A   22
N21
A   23
C22
A   24
N22
A   25
C23
A   26
C24
A   27
C27
A   28
C25
M  END
>  <Id>  (25) 
4IMX_1EV_B_503

>  <ChainId>  (25) 
B

>  <AsymId>  (25) 
M

>  <SeqNum>  (25) 
503

>  <Name>  (25) 
3,5-bis[2-(6-amino-4-methylpyridin-2-yl)ethyl]benzonitrile

>  <SystematicName>  (25) 
3,5-bis[2-(6-azanyl-4-methyl-pyridin-2-yl)ethyl]benzenecarbonitrile

>  <Synonyms>  (25) 


>  <Type>  (25) 
NON-POLYMER

>  <Formula>  (25) 
C23 H25 N5

>  <ObservedFormula>  (25) 
C23 N5

>  <MolecularWeight>  (25) 
371.478

>  <ModifiedDate>  (25) 
2013-04-19

>  <Parent>  (25) 


>  <OneLetterCode>  (25) 


>  <SubcomponentList>  (25) 


>  <AmbiguousFlag>  (25) 
N

>  <InsertionCode>  (25) 


>  <InstanceId>  (25) 
4IMX_1EV_B_503

>  <ChemCompId>  (25) 
1EV

>  <PdbId>  (25) 
4IMX

>  <ResidueNumber>  (25) 
503

>  <InChI>  (25) 
InChI=1S/C23H25N5/c1-15-7-20(27-22(25)9-15)5-3-17-11-18(13-19(12-17)14-24)4-6-21-8-16(2)10-23(26)28-21/h7-13H,3-6H2,1-2H3,(H2,25,27)(H2,26,28)

>  <InChIKey>  (25) 
IXUSJKAERUMZME-UHFFFAOYSA-N

>  <SMILES>  (25) 
Cc1cc(nc(c1)N)CCc2cc(cc(c2)C#N)CCc3cc(cc(n3)N)C

>  <MissingHeavyAtoms>  (25) 
0

>  <Model>  (25) 
1

>  <AltIds>  (25) 


>  <pKI>  (25) 
4.58

>  <ChemblID>  (25) 
CHEMBL2326361

>  <standardized_canonical_smiles>  (25) 
Cc1cc(N)nc(CCc2cc(C#N)cc(CCc3cc(C)cc(N)n3)c2)c1

$$$$
3RQP_X2E_B_805
     RDKit          3D

 28 30  0  0  0  0  0  0  0  0999 V2000
    2.6150    0.2910   62.7280 N   0  0  0  0  0  0  0  0  0  0  0  0
    3.5780   -0.5990   62.3780 C   0  0  0  0  0  0  0  0  0  0  0  0
    4.9080   -0.2770   62.5040 N   0  0  0  0  0  0  0  0  0  0  0  0
    3.1450   -1.8440   61.8830 C   0  0  0  0  0  0  0  0  0  0  0  0
    1.7750   -2.1600   61.7710 C   0  0  0  0  0  0  0  0  0  0  0  0
    0.8260   -1.2190   62.1490 C   0  0  0  0  0  0  0  0  0  0  0  0
    1.2820    0.0060   62.6310 C   0  0  0  0  0  0  0  0  0  0  0  0
    1.3080   -3.4960   61.2410 C   0  0  0  0  0  0  0  0  0  0  0  0
    0.2950    1.0530   63.0330 C   0  0  0  0  0  0  0  0  0  0  0  0
   -1.3730    2.6320   63.5260 O   0  0  0  0  0  0  0  0  0  0  0  0
   -0.4810    3.6230   60.5990 N   0  0  0  0  0  0  0  0  0  0  0  0
   -1.9950    3.7970   64.0500 C   0  0  0  0  0  0  0  0  0  0  0  0
   -0.8950    4.3850   64.9040 C   0  0  0  0  0  0  0  0  0  0  0  0
   -0.9080    5.7920   64.7040 N   0  0  0  0  0  0  0  0  0  0  0  0
   -0.7540    6.5540   65.8960 C   0  0  0  0  0  0  0  0  0  0  0  0
    0.3770    7.5230   65.6270 C   0  0  0  0  0  0  0  0  0  0  0  0
   -2.0960    7.2050   66.2040 C   0  0  0  0  0  0  0  0  0  0  0  0
   -1.7890    3.5110   61.2100 C   0  0  0  0  0  0  0  0  0  0  0  0
    0.4670    8.6270   66.6470 C   0  0  0  0  0  0  0  0  0  0  0  0
   -0.0260    9.8820   66.3180 C   0  0  0  0  0  0  0  0  0  0  0  0
    0.0520   10.9400   67.1950 C   0  0  0  0  0  0  0  0  0  0  0  0
    0.6460   10.7160   68.4350 C   0  0  0  0  0  0  0  0  0  0  0  0
    1.1480    9.4560   68.7680 C   0  0  0  0  0  0  0  0  0  0  0  0
    1.6900    9.2610   69.9740 F   0  0  0  0  0  0  0  0  0  0  0  0
    1.0730    8.4010   67.8760 C   0  0  0  0  0  0  0  0  0  0  0  0
   -1.6390    2.3050   62.1510 C   0  0  0  0  0  0  0  0  0  0  0  0
   -0.3760    1.5630   61.7660 C   0  0  0  0  0  0  0  0  0  0  0  0
    0.4630    2.5890   61.0120 C   0  0  0  0  0  0  0  0  0  0  0  0
  2  1  2  0
  7  1  1  0
  3  2  1  0
  4  2  1  0
  5  4  2  0
  6  5  1  0
  8  5  1  0
  7  6  2  0
  9  7  1  0
 27  9  1  0
 12 10  1  0
 26 10  1  0
 18 11  1  0
 28 11  1  0
 13 12  1  0
 14 13  1  0
 15 14  1  0
 16 15  1  0
 17 15  1  0
 19 16  1  0
 26 18  1  0
 20 19  2  0
 25 19  1  0
 21 20  1  0
 22 21  2  0
 23 22  1  0
 24 23  1  0
 25 23  2  0
 27 26  1  0
 28 27  1  0
A    1
N01
A    2
C02
A    3
N02
A    4
C03
A    5
C04
A    6
C05
A    7
C06
A    8
C07
A    9
C08
A   10
O09
A   11
N1'
A   12
C10
A   13
C11
A   14
N11
A   15
C13
A   16
C14
A   17
C15
A   18
C2'
A   19
C21
A   20
C22
A   21
C23
A   22
C24
A   23
C25
A   24
F25
A   25
C26
A   26
C3'
A   27
C4'
A   28
C5'
M  END
>  <Id>  (26) 
3RQP_X2E_B_805

>  <ChainId>  (26) 
B

>  <AsymId>  (26) 
L

>  <SeqNum>  (26) 
805

>  <Name>  (26) 
6-{[(3R,4R)-4-(2-{[(2R)-1-(3-fluorophenyl)propan-2-yl]amino}ethoxy)pyrrolidin-3-yl]methyl}-4-methylpyridin-2-amine

>  <SystematicName>  (26) 
6-[[(3R,4R)-4-[2-[[(2R)-1-(3-fluorophenyl)propan-2-yl]amino]ethoxy]pyrrolidin-3-yl]methyl]-4-methyl-pyridin-2-amine

>  <Synonyms>  (26) 


>  <Type>  (26) 
NON-POLYMER

>  <Formula>  (26) 
C22 H31 F N4 O

>  <ObservedFormula>  (26) 
C22 F N4 O

>  <MolecularWeight>  (26) 
386.506

>  <ModifiedDate>  (26) 
2012-04-27

>  <Parent>  (26) 


>  <OneLetterCode>  (26) 


>  <SubcomponentList>  (26) 


>  <AmbiguousFlag>  (26) 
N

>  <InsertionCode>  (26) 


>  <InstanceId>  (26) 
3RQP_X2E_B_805

>  <ChemCompId>  (26) 
X2E

>  <PdbId>  (26) 
3RQP

>  <ResidueNumber>  (26) 
805

>  <InChI>  (26) 
InChI=1S/C22H31FN4O/c1-15-8-20(27-22(24)9-15)12-18-13-25-14-21(18)28-7-6-26-16(2)10-17-4-3-5-19(23)11-17/h3-5,8-9,11,16,18,21,25-26H,6-7,10,12-14H2,1-2H3,(H2,24,27)/t16-,18-,21+/m1/s1

>  <InChIKey>  (26) 
AUSIEXNWJKDTQY-BLIXFSHQSA-N

>  <SMILES>  (26) 
Cc1cc(nc(c1)N)C[C@@H]2CNC[C@@H]2OCCN[C@H](C)Cc3cccc(c3)F

>  <MissingHeavyAtoms>  (26) 
0

>  <Model>  (26) 
1

>  <AltIds>  (26) 


>  <pKI>  (26) 
4.4

>  <ChemblID>  (26) 
CHEMBL2332789

>  <standardized_canonical_smiles>  (26) 
Cc1cc(N)nc(C[C@@H]2CNC[C@@H]2OCCN[C@H](C)Cc2cccc(F)c2)c1

$$$$
3RQO_X2D_B_800
     RDKit          3D

 28 31  0  0  0  0  0  0  0  0999 V2000
    2.5360    0.2340   62.6740 N   0  0  0  0  0  0  0  0  0  0  0  0
    3.5600   -0.5780   62.3290 C   0  0  0  0  0  0  0  0  0  0  0  0
    4.8520   -0.1770   62.5320 N   0  0  0  0  0  0  0  0  0  0  0  0
    3.2880   -1.8230   61.7560 C   0  0  0  0  0  0  0  0  0  0  0  0
    1.9630   -2.2120   61.5570 C   0  0  0  0  0  0  0  0  0  0  0  0
    0.9180   -1.3640   61.9270 C   0  0  0  0  0  0  0  0  0  0  0  0
    1.2280   -0.1450   62.5030 C   0  0  0  0  0  0  0  0  0  0  0  0
    1.6460   -3.5550   60.9350 C   0  0  0  0  0  0  0  0  0  0  0  0
    0.1110    0.7960   62.8730 C   0  0  0  0  0  0  0  0  0  0  0  0
   -1.5510    2.8940   63.0350 O   0  0  0  0  0  0  0  0  0  0  0  0
   -0.3590    3.4760   60.4200 N   0  0  0  0  0  0  0  0  0  0  0  0
   -2.5880    3.7500   63.4950 C   0  0  0  0  0  0  0  0  0  0  0  0
   -2.0750    4.4280   64.7600 C   0  0  0  0  0  0  0  0  0  0  0  0
   -1.3590    5.6720   64.5210 N   0  0  0  0  0  0  0  0  0  0  0  0
   -0.9480    6.4220   65.6820 C   0  0  0  0  0  0  0  0  0  0  0  0
   -1.2060    7.8970   65.4110 C   0  0  0  0  0  0  0  0  0  0  0  0
   -2.1790    7.0970   66.2610 C   0  0  0  0  0  0  0  0  0  0  0  0
    0.5370    2.4270   60.9180 C   0  0  0  0  0  0  0  0  0  0  0  0
   -0.4780    8.8780   66.2690 C   0  0  0  0  0  0  0  0  0  0  0  0
    0.2870    8.5180   67.3760 C   0  0  0  0  0  0  0  0  0  0  0  0
    0.8990    9.5240   68.1190 C   0  0  0  0  0  0  0  0  0  0  0  0
    1.8610    9.1030   69.5640 Cl  0  0  0  0  0  0  0  0  0  0  0  0
    0.7550   10.8650   67.7830 C   0  0  0  0  0  0  0  0  0  0  0  0
    0.0060   11.2250   66.6680 C   0  0  0  0  0  0  0  0  0  0  0  0
   -0.6150   10.2230   65.9350 C   0  0  0  0  0  0  0  0  0  0  0  0
   -0.4400    1.4290   61.5840 C   0  0  0  0  0  0  0  0  0  0  0  0
   -1.7340    2.2220   61.7860 C   0  0  0  0  0  0  0  0  0  0  0  0
   -1.7660    3.2390   60.6500 C   0  0  0  0  0  0  0  0  0  0  0  0
  2  1  2  0
  7  1  1  0
  3  2  1  0
  4  2  1  0
  5  4  2  0
  6  5  1  0
  8  5  1  0
  7  6  2  0
  9  7  1  0
 26  9  1  0
 12 10  1  0
 27 10  1  0
 18 11  1  0
 28 11  1  0
 13 12  1  0
 14 13  1  0
 15 14  1  0
 16 15  1  0
 17 15  1  0
 17 16  1  0
 19 16  1  0
 26 18  1  0
 20 19  2  0
 25 19  1  0
 21 20  1  0
 22 21  1  0
 23 21  2  0
 24 23  1  0
 25 24  2  0
 27 26  1  0
 28 27  1  0
A    1
N01
A    2
C02
A    3
N02
A    4
C03
A    5
C04
A    6
C05
A    7
C06
A    8
C07
A    9
C08
A   10
O09
A   11
N1'
A   12
C10
A   13
C11
A   14
N12
A   15
C13
A   16
C14
A   17
C15
A   18
C2'
A   19
C21
A   20
C22
A   21
C23
A   22
CL23
A   23
C24
A   24
C25
A   25
C26
A   26
C3'
A   27
C4'
A   28
C5'
M  END
>  <Id>  (27) 
3RQO_X2D_B_800

>  <ChainId>  (27) 
B

>  <AsymId>  (27) 
L

>  <SeqNum>  (27) 
800

>  <Name>  (27) 
6-{[(3R,4R)-4-(2-{[(1R,2S)-2-(3-chlorophenyl)cyclopropyl]amino}ethoxy)pyrrolidin-3-yl]methyl}-4-methylpyridin-2-amine

>  <SystematicName>  (27) 
6-[[(3R,4R)-4-[2-[[(1R,2S)-2-(3-chlorophenyl)cyclopropyl]amino]ethoxy]pyrrolidin-3-yl]methyl]-4-methyl-pyridin-2-amine

>  <Synonyms>  (27) 


>  <Type>  (27) 
NON-POLYMER

>  <Formula>  (27) 
C22 H29 Cl N4 O

>  <ObservedFormula>  (27) 
C22 Cl N4 O

>  <MolecularWeight>  (27) 
400.945

>  <ModifiedDate>  (27) 
2012-04-27

>  <Parent>  (27) 


>  <OneLetterCode>  (27) 


>  <SubcomponentList>  (27) 


>  <AmbiguousFlag>  (27) 
N

>  <InsertionCode>  (27) 


>  <InstanceId>  (27) 
3RQO_X2D_B_800

>  <ChemCompId>  (27) 
X2D

>  <PdbId>  (27) 
3RQO

>  <ResidueNumber>  (27) 
800

>  <InChI>  (27) 
InChI=1S/C22H29ClN4O/c1-14-7-18(27-22(24)8-14)10-16-12-25-13-21(16)28-6-5-26-20-11-19(20)15-3-2-4-17(23)9-15/h2-4,7-9,16,19-21,25-26H,5-6,10-13H2,1H3,(H2,24,27)/t16-,19+,20-,21+/m1/s1

>  <InChIKey>  (27) 
SLFXGXAWJWFFCO-RCOXNQKVSA-N

>  <SMILES>  (27) 
Cc1cc(nc(c1)N)C[C@@H]2CNC[C@@H]2OCCN[C@@H]3C[C@H]3c4cccc(c4)Cl

>  <MissingHeavyAtoms>  (27) 
0

>  <Model>  (27) 
1

>  <AltIds>  (27) 


>  <pKI>  (27) 
4.35

>  <ChemblID>  (27) 
CHEMBL2332791

>  <standardized_canonical_smiles>  (27) 
Cc1cc(N)nc(C[C@@H]2CNC[C@@H]2OCCNC2CC2c2cccc(Cl)c2)c1

$$$$
4JSM_QJ7_B_505
     RDKit          3D

 27 29  0  0  0  0  0  0  0  0999 V2000
   -1.5000   -4.7010   61.3090 F   0  0  0  0  0  0  0  0  0  0  0  0
   -0.1960   -4.4120   61.5430 C   0  0  0  0  0  0  0  0  0  0  0  0
    0.7190   -5.4240   61.9010 C   0  0  0  0  0  0  0  0  0  0  0  0
    2.0650   -5.0950   62.1560 C   0  0  0  0  0  0  0  0  0  0  0  0
    2.5020   -3.7680   62.0510 C   0  0  0  0  0  0  0  0  0  0  0  0
    0.2480   -3.0820   61.4390 C   0  0  0  0  0  0  0  0  0  0  0  0
    1.5930   -2.7630   61.6920 C   0  0  0  0  0  0  0  0  0  0  0  0
    2.0420   -1.3250   61.5780 C   0  0  0  0  0  0  0  0  0  0  0  0
    1.8880   -0.6960   62.9500 C   0  0  0  0  0  0  0  0  0  0  0  0
    0.8180    0.2730   63.0400 N   0  0  0  0  0  0  0  0  0  0  0  0
    0.4710    0.7100   64.3660 C   0  0  0  0  0  0  0  0  0  0  0  0
   -0.3040    2.0150   64.4180 C   0  0  0  0  0  0  0  0  0  0  0  0
    0.2740    3.1720   64.9610 C   0  0  0  0  0  0  0  0  0  0  0  0
   -1.6290    2.0460   63.9740 C   0  0  0  0  0  0  0  0  0  0  0  0
   -2.3250    3.1980   64.0480 N   0  0  0  0  0  0  0  0  0  0  0  0
   -1.7820    4.3330   64.5620 C   0  0  0  0  0  0  0  0  0  0  0  0
   -0.4550    4.3640   65.0290 C   0  0  0  0  0  0  0  0  0  0  0  0
    0.1030    5.5180   65.5560 O   0  0  0  0  0  0  0  0  0  0  0  0
   -0.6920    6.6870   65.7530 C   0  0  0  0  0  0  0  0  0  0  0  0
   -0.1030    7.8300   66.5750 C   0  0  0  0  0  0  0  0  0  0  0  0
   -0.4380    9.1010   66.2370 N   0  0  0  0  0  0  0  0  0  0  0  0
   -0.0180   10.1600   66.9430 C   0  0  0  0  0  0  0  0  0  0  0  0
   -0.3610   11.3910   66.5290 N   0  0  0  0  0  0  0  0  0  0  0  0
    0.8190    9.9790   68.0570 C   0  0  0  0  0  0  0  0  0  0  0  0
    1.1630    8.6870   68.4270 C   0  0  0  0  0  0  0  0  0  0  0  0
    0.6880    7.6140   67.6940 C   0  0  0  0  0  0  0  0  0  0  0  0
    2.0090    8.4460   69.6270 C   0  0  0  0  0  0  0  0  0  0  0  0
  2  1  1  0
  3  2  2  0
  6  2  1  0
  4  3  1  0
  5  4  2  0
  7  5  1  0
  7  6  2  0
  8  7  1  0
  9  8  1  0
 10  9  1  0
 11 10  1  0
 12 11  1  0
 13 12  2  0
 14 12  1  0
 17 13  1  0
 15 14  2  0
 16 15  1  0
 17 16  2  0
 18 17  1  0
 19 18  1  0
 20 19  1  0
 21 20  2  0
 26 20  1  0
 22 21  1  0
 23 22  1  0
 24 22  2  0
 25 24  1  0
 26 25  2  0
 27 25  1  0
A    1
F23
A    2
C23
A    3
C24
A    4
C25
A    5
C26
A    6
C22
A    7
C21
A    8
C20
A    9
C19
A   10
N18
A   11
C17
A   12
C15
A   13
C14
A   14
C16
A   15
N11
A   16
C12
A   17
C13
A   18
O09
A   19
C08
A   20
C06
A   21
N01
A   22
C02
A   23
N02
A   24
C03
A   25
C04
A   26
C05
A   27
C07
M  END
>  <Id>  (28) 
4JSM_QJ7_B_505

>  <ChainId>  (28) 
B

>  <AsymId>  (28) 
M

>  <SeqNum>  (28) 
505

>  <Name>  (28) 
6-({[5-({[2-(3-fluorophenyl)ethyl]amino}methyl)pyridin-3-yl]oxy}methyl)-4-methylpyridin-2-amine

>  <SystematicName>  (28) 
6-[[5-[[2-(3-fluorophenyl)ethylamino]methyl]pyridin-3-yl]oxymethyl]-4-methyl-pyridin-2-amine

>  <Synonyms>  (28) 


>  <Type>  (28) 
NON-POLYMER

>  <Formula>  (28) 
C21 H23 F N4 O

>  <ObservedFormula>  (28) 
C21 F N4 O

>  <MolecularWeight>  (28) 
366.432

>  <ModifiedDate>  (28) 
2013-08-02

>  <Parent>  (28) 


>  <OneLetterCode>  (28) 


>  <SubcomponentList>  (28) 


>  <AmbiguousFlag>  (28) 
N

>  <InsertionCode>  (28) 


>  <InstanceId>  (28) 
4JSM_QJ7_B_505

>  <ChemCompId>  (28) 
QJ7

>  <PdbId>  (28) 
4JSM

>  <ResidueNumber>  (28) 
505

>  <InChI>  (28) 
InChI=1S/C21H23FN4O/c1-15-7-19(26-21(23)8-15)14-27-20-10-17(12-25-13-20)11-24-6-5-16-3-2-4-18(22)9-16/h2-4,7-10,12-13,24H,5-6,11,14H2,1H3,(H2,23,26)

>  <InChIKey>  (28) 
IGLNPZZNPBQOMM-UHFFFAOYSA-N

>  <SMILES>  (28) 
Cc1cc(nc(c1)N)COc2cc(cnc2)CNCCc3cccc(c3)F

>  <MissingHeavyAtoms>  (28) 
0

>  <Model>  (28) 
1

>  <AltIds>  (28) 


>  <pKI>  (28) 
4.98

>  <ChemblID>  (28) 
CHEMBL2414437

>  <standardized_canonical_smiles>  (28) 
Cc1cc(N)nc(COc2cncc(CNCCc3cccc(F)c3)c2)c1

$$$$
4JSL_QJ4_B_503
     RDKit          3D

 23 24  0  0  0  0  0  0  0  0999 V2000
    4.8300   -0.7300   62.8850 N   0  0  0  0  0  0  0  0  0  0  0  0
    3.5430   -1.0620   62.5640 C   0  0  0  0  0  0  0  0  0  0  0  0
    3.2680   -2.3170   62.0010 C   0  0  0  0  0  0  0  0  0  0  0  0
    1.9390   -2.6520   61.6770 C   0  0  0  0  0  0  0  0  0  0  0  0
    1.5940   -3.9870   61.0630 C   0  0  0  0  0  0  0  0  0  0  0  0
    0.9090   -1.7480   61.9050 C   0  0  0  0  0  0  0  0  0  0  0  0
    2.5060   -0.1880   62.7760 N   0  0  0  0  0  0  0  0  0  0  0  0
    1.2000   -0.5060   62.4690 C   0  0  0  0  0  0  0  0  0  0  0  0
    0.0090    0.4260   62.7010 C   0  0  0  0  0  0  0  0  0  0  0  0
    0.3620    1.8500   63.0880 C   0  0  0  0  0  0  0  0  0  0  0  0
   -0.7570    2.4760   63.9140 C   0  0  0  0  0  0  0  0  0  0  0  0
   -0.2260    3.6980   64.6490 C   0  0  0  0  0  0  0  0  0  0  0  0
   -1.3290    4.7200   64.8070 C   0  0  0  0  0  0  0  0  0  0  0  0
   -1.1850    5.5810   66.0560 C   0  0  0  0  0  0  0  0  0  0  0  0
   -0.3130    6.7320   65.6960 C   0  0  0  0  0  0  0  0  0  0  0  0
   -0.0640    7.8650   66.6920 C   0  0  0  0  0  0  0  0  0  0  0  0
   -0.4160    9.1000   66.2810 N   0  0  0  0  0  0  0  0  0  0  0  0
   -0.2040   10.1980   67.0200 C   0  0  0  0  0  0  0  0  0  0  0  0
   -0.5880   11.3830   66.4960 N   0  0  0  0  0  0  0  0  0  0  0  0
    0.4160   10.1030   68.2670 C   0  0  0  0  0  0  0  0  0  0  0  0
    0.8000    8.8290   68.7110 C   0  0  0  0  0  0  0  0  0  0  0  0
    0.5610    7.6860   67.9300 C   0  0  0  0  0  0  0  0  0  0  0  0
    1.4390    8.6830   70.0430 C   0  0  0  0  0  0  0  0  0  0  0  0
  2  1  1  0
  3  2  2  0
  7  2  1  0
  4  3  1  0
  5  4  1  0
  6  4  2  0
  8  6  1  0
  8  7  2  0
  9  8  1  0
 10  9  1  0
 11 10  1  0
 12 11  1  0
 13 12  1  0
 14 13  1  0
 15 14  1  0
 16 15  1  0
 17 16  2  0
 22 16  1  0
 18 17  1  0
 19 18  1  0
 20 18  2  0
 21 20  1  0
 22 21  2  0
 23 21  1  0
A    1
N22
A    2
C22
A    3
C23
A    4
C24
A    5
C27
A    6
C25
A    7
N21
A    8
C26
A    9
C14
A   10
C13
A   11
C12
A   12
C11
A   13
C10
A   14
C09
A   15
C08
A   16
C06
A   17
N01
A   18
C02
A   19
N02
A   20
C03
A   21
C04
A   22
C05
A   23
C07
M  END
>  <Id>  (29) 
4JSL_QJ4_B_503

>  <ChainId>  (29) 
B

>  <AsymId>  (29) 
L

>  <SeqNum>  (29) 
503

>  <Name>  (29) 
6,6'-heptane-1,7-diylbis(4-methylpyridin-2-amine)

>  <SystematicName>  (29) 
6-[7-(6-azanyl-4-methyl-pyridin-2-yl)heptyl]-4-methyl-pyridin-2-amine

>  <Synonyms>  (29) 


>  <Type>  (29) 
NON-POLYMER

>  <Formula>  (29) 
C19 H28 N4

>  <ObservedFormula>  (29) 
C19 N4

>  <MolecularWeight>  (29) 
312.452

>  <ModifiedDate>  (29) 
2013-08-02

>  <Parent>  (29) 


>  <OneLetterCode>  (29) 


>  <SubcomponentList>  (29) 


>  <AmbiguousFlag>  (29) 
N

>  <InsertionCode>  (29) 


>  <InstanceId>  (29) 
4JSL_QJ4_B_503

>  <ChemCompId>  (29) 
QJ4

>  <PdbId>  (29) 
4JSL

>  <ResidueNumber>  (29) 
503

>  <InChI>  (29) 
InChI=1S/C19H28N4/c1-14-10-16(22-18(20)12-14)8-6-4-3-5-7-9-17-11-15(2)13-19(21)23-17/h10-13H,3-9H2,1-2H3,(H2,20,22)(H2,21,23)

>  <InChIKey>  (29) 
FSVLONGGRYPEKX-UHFFFAOYSA-N

>  <SMILES>  (29) 
Cc1cc(nc(c1)N)CCCCCCCc2cc(cc(n2)N)C

>  <MissingHeavyAtoms>  (29) 
0

>  <Model>  (29) 
1

>  <AltIds>  (29) 


>  <pKI>  (29) 
5.67

>  <ChemblID>  (29) 
CHEMBL2414428

>  <standardized_canonical_smiles>  (29) 
Cc1cc(N)nc(CCCCCCCc2cc(C)cc(N)n2)c1

$$$$
4JSK_QJ2_B_503
     RDKit          3D

 21 22  0  0  0  0  0  0  0  0999 V2000
    1.9970   -1.0230   66.1240 N   0  0  0  0  0  0  0  0  0  0  0  0
    1.6390   -0.6240   64.8760 C   0  0  0  0  0  0  0  0  0  0  0  0
    1.9430   -1.4190   63.7540 C   0  0  0  0  0  0  0  0  0  0  0  0
    1.5770   -0.9610   62.4840 C   0  0  0  0  0  0  0  0  0  0  0  0
    1.8770   -1.8040   61.2770 C   0  0  0  0  0  0  0  0  0  0  0  0
    0.9060    0.2660   62.3370 C   0  0  0  0  0  0  0  0  0  0  0  0
    0.9780    0.5630   64.7080 N   0  0  0  0  0  0  0  0  0  0  0  0
    0.6100    1.0120   63.4650 C   0  0  0  0  0  0  0  0  0  0  0  0
   -0.1070    2.3240   63.3470 C   0  0  0  0  0  0  0  0  0  0  0  0
   -0.0850    2.9510   64.7280 C   0  0  0  0  0  0  0  0  0  0  0  0
   -0.5530    4.3960   64.6990 C   0  0  0  0  0  0  0  0  0  0  0  0
    0.4030    5.3440   65.4200 C   0  0  0  0  0  0  0  0  0  0  0  0
   -0.4500    6.5420   65.7490 C   0  0  0  0  0  0  0  0  0  0  0  0
    0.0730    7.6840   66.5890 C   0  0  0  0  0  0  0  0  0  0  0  0
   -0.3320    8.9190   66.1800 N   0  0  0  0  0  0  0  0  0  0  0  0
    0.0020   10.0050   66.8910 C   0  0  0  0  0  0  0  0  0  0  0  0
   -0.4210   11.1920   66.4420 N   0  0  0  0  0  0  0  0  0  0  0  0
    0.8050    9.8970   68.0400 C   0  0  0  0  0  0  0  0  0  0  0  0
    1.2450    8.6470   68.4650 C   0  0  0  0  0  0  0  0  0  0  0  0
    0.8530    7.5210   67.7450 C   0  0  0  0  0  0  0  0  0  0  0  0
    2.0550    8.5250   69.7280 C   0  0  0  0  0  0  0  0  0  0  0  0
  2  1  1  0
  3  2  2  0
  7  2  1  0
  4  3  1  0
  5  4  1  0
  6  4  2  0
  8  6  1  0
  8  7  2  0
  9  8  1  0
 10  9  1  0
 11 10  1  0
 12 11  1  0
 13 12  1  0
 14 13  1  0
 15 14  2  0
 20 14  1  0
 16 15  1  0
 17 16  1  0
 18 16  2  0
 19 18  1  0
 20 19  2  0
 21 19  1  0
A    1
N22
A    2
C22
A    3
C23
A    4
C24
A    5
C27
A    6
C25
A    7
N21
A    8
C26
A    9
C12
A   10
C11
A   11
C10
A   12
C09
A   13
C08
A   14
C06
A   15
N01
A   16
C02
A   17
N02
A   18
C03
A   19
C04
A   20
C05
A   21
C07
M  END
>  <Id>  (30) 
4JSK_QJ2_B_503

>  <ChainId>  (30) 
B

>  <AsymId>  (30) 
L

>  <SeqNum>  (30) 
503

>  <Name>  (30) 
6,6'-pentane-1,5-diylbis(4-methylpyridin-2-amine)

>  <SystematicName>  (30) 
6-[5-(6-azanyl-4-methyl-pyridin-2-yl)pentyl]-4-methyl-pyridin-2-amine

>  <Synonyms>  (30) 


>  <Type>  (30) 
NON-POLYMER

>  <Formula>  (30) 
C17 H24 N4

>  <ObservedFormula>  (30) 
C17 N4

>  <MolecularWeight>  (30) 
284.399

>  <ModifiedDate>  (30) 
2013-08-02

>  <Parent>  (30) 


>  <OneLetterCode>  (30) 


>  <SubcomponentList>  (30) 


>  <AmbiguousFlag>  (30) 
N

>  <InsertionCode>  (30) 


>  <InstanceId>  (30) 
4JSK_QJ2_B_503

>  <ChemCompId>  (30) 
QJ2

>  <PdbId>  (30) 
4JSK

>  <ResidueNumber>  (30) 
503

>  <InChI>  (30) 
InChI=1S/C17H24N4/c1-12-8-14(20-16(18)10-12)6-4-3-5-7-15-9-13(2)11-17(19)21-15/h8-11H,3-7H2,1-2H3,(H2,18,20)(H2,19,21)

>  <InChIKey>  (30) 
UWCJUMUVUHRQQV-UHFFFAOYSA-N

>  <SMILES>  (30) 
Cc1cc(nc(c1)N)CCCCCc2cc(cc(n2)N)C

>  <MissingHeavyAtoms>  (30) 
0

>  <Model>  (30) 
1

>  <AltIds>  (30) 


>  <pKI>  (30) 
6.01

>  <ChemblID>  (30) 
CHEMBL2414426

>  <standardized_canonical_smiles>  (30) 
Cc1cc(N)nc(CCCCCc2cc(C)cc(N)n2)c1

$$$$
4K5H_1Q6_B_503
     RDKit          3D

 24 25  0  0  0  0  0  0  0  0999 V2000
   -0.5780   11.3530   66.4430 N   0  0  0  0  0  0  0  0  0  0  0  0
   -0.2940   10.1060   66.8470 C   0  0  0  0  0  0  0  0  0  0  0  0
    0.4930    9.8610   67.9930 C   0  0  0  0  0  0  0  0  0  0  0  0
    0.7290    8.5450   68.3320 C   0  0  0  0  0  0  0  0  0  0  0  0
    1.5110    8.2630   69.5630 C   0  0  0  0  0  0  0  0  0  0  0  0
    0.2330    7.5050   67.5370 C   0  0  0  0  0  0  0  0  0  0  0  0
   -0.6930    9.0890   66.0830 N   0  0  0  0  0  0  0  0  0  0  0  0
   -0.4970    7.7980   66.4050 C   0  0  0  0  0  0  0  0  0  0  0  0
   -1.1140    6.7680   65.4720 C   0  0  0  0  0  0  0  0  0  0  0  0
   -1.0210    5.4170   65.9000 O   0  0  0  0  0  0  0  0  0  0  0  0
   -0.8630    4.4520   64.8340 C   0  0  0  0  0  0  0  0  0  0  0  0
    0.4040    3.5990   64.9330 C   0  0  0  0  0  0  0  0  0  0  0  0
    0.6940    2.9900   63.6480 N   0  0  0  0  0  0  0  0  0  0  0  0
   -2.0120    3.4400   64.7140 C   0  0  0  0  0  0  0  0  0  0  0  0
   -2.1320    2.5310   65.7960 O   0  0  0  0  0  0  0  0  0  0  0  0
   -2.8940    1.3640   65.4480 C   0  0  0  0  0  0  0  0  0  0  0  0
   -1.8730    0.3640   64.9690 C   0  0  0  0  0  0  0  0  0  0  0  0
   -2.1690   -0.4330   63.8460 C   0  0  0  0  0  0  0  0  0  0  0  0
   -0.6660    0.2750   65.6430 N   0  0  0  0  0  0  0  0  0  0  0  0
    0.3050   -0.6070   65.2380 C   0  0  0  0  0  0  0  0  0  0  0  0
    1.4940   -0.6750   65.9360 N   0  0  0  0  0  0  0  0  0  0  0  0
    0.0420   -1.4320   64.1140 C   0  0  0  0  0  0  0  0  0  0  0  0
   -1.1960   -1.3480   63.4140 C   0  0  0  0  0  0  0  0  0  0  0  0
   -1.4970   -2.2160   62.2030 C   0  0  0  0  0  0  0  0  0  0  0  0
  2  1  1  0
  3  2  2  0
  7  2  1  0
  4  3  1  0
  5  4  1  0
  6  4  2  0
  8  6  1  0
  8  7  2  0
  9  8  1  0
 10  9  1  0
 11 10  1  0
 12 11  1  0
 14 11  1  0
 13 12  1  0
 15 14  1  0
 16 15  1  0
 17 16  1  0
 18 17  2  0
 19 17  1  0
 23 18  1  0
 20 19  2  0
 21 20  1  0
 22 20  1  0
 23 22  2  0
 24 23  1  0
A    1
N22
A    2
C22
A    3
C23
A    4
C24
A    5
C27
A    6
C25
A    7
N21
A    8
C26
A    9
C28
A   10
O29
A   11
C11
A   12
C12
A   13
N13
A   14
C10
A   15
O09
A   16
C08
A   17
C06
A   18
C05
A   19
N01
A   20
C02
A   21
N02
A   22
C03
A   23
C04
A   24
C07
M  END
>  <Id>  (31) 
4K5H_1Q6_B_503

>  <ChainId>  (31) 
B

>  <AsymId>  (31) 
L

>  <SeqNum>  (31) 
503

>  <Name>  (31) 
6,6'-{[(2S)-3-aminopropane-1,2-diyl]bis(oxymethanediyl)}bis(4-methylpyridin-2-amine)

>  <SystematicName>  (31) 
6-[[(2S)-3-azanyl-2-[(6-azanyl-4-methyl-pyridin-2-yl)methoxy]propoxy]methyl]-4-methyl-pyridin-2-amine

>  <Synonyms>  (31) 


>  <Type>  (31) 
NON-POLYMER

>  <Formula>  (31) 
C17 H25 N5 O2

>  <ObservedFormula>  (31) 
C17 N5 O2

>  <MolecularWeight>  (31) 
331.413

>  <ModifiedDate>  (31) 
2013-09-13

>  <Parent>  (31) 


>  <OneLetterCode>  (31) 


>  <SubcomponentList>  (31) 


>  <AmbiguousFlag>  (31) 
N

>  <InsertionCode>  (31) 


>  <InstanceId>  (31) 
4K5H_1Q6_B_503

>  <ChemCompId>  (31) 
1Q6

>  <PdbId>  (31) 
4K5H

>  <ResidueNumber>  (31) 
503

>  <InChI>  (31) 
InChI=1S/C17H25N5O2/c1-11-3-13(21-16(19)5-11)8-23-10-15(7-18)24-9-14-4-12(2)6-17(20)22-14/h3-6,15H,7-10,18H2,1-2H3,(H2,19,21)(H2,20,22)/t15-/m0/s1

>  <InChIKey>  (31) 
FVCUZJIKIIWHJD-HNNXBMFYSA-N

>  <SMILES>  (31) 
Cc1cc(nc(c1)N)COC[C@H](CN)OCc2cc(cc(n2)N)C

>  <MissingHeavyAtoms>  (31) 
0

>  <Model>  (31) 
1

>  <AltIds>  (31) 


>  <pKI>  (31) 
4.58

>  <ChemblID>  (31) 
CHEMBL2430143

>  <standardized_canonical_smiles>  (31) 
Cc1cc(N)nc(COC[C@H](CN)OCc2cc(C)cc(N)n2)c1

$$$$
4K5I_1Q7_B_503
     RDKit          3D

 24 25  0  0  0  0  0  0  0  0999 V2000
   -2.5440   -0.3830   60.2350 N   0  0  0  0  0  0  0  0  0  0  0  0
   -1.3610   -0.2340   60.8760 C   0  0  0  0  0  0  0  0  0  0  0  0
   -0.4770   -1.3180   60.9880 C   0  0  0  0  0  0  0  0  0  0  0  0
    0.7380   -1.1510   61.6550 C   0  0  0  0  0  0  0  0  0  0  0  0
    1.6940   -2.3050   61.7900 C   0  0  0  0  0  0  0  0  0  0  0  0
    1.0460    0.0970   62.1960 C   0  0  0  0  0  0  0  0  0  0  0  0
   -1.0450    0.9760   61.4000 N   0  0  0  0  0  0  0  0  0  0  0  0
    0.1280    1.1460   62.0500 C   0  0  0  0  0  0  0  0  0  0  0  0
    0.4140    2.5010   62.6280 C   0  0  0  0  0  0  0  0  0  0  0  0
   -0.4690    2.6760   63.7390 O   0  0  0  0  0  0  0  0  0  0  0  0
   -0.0430    3.7610   64.5320 C   0  0  0  0  0  0  0  0  0  0  0  0
    0.6240    3.1800   65.7760 C   0  0  0  0  0  0  0  0  0  0  0  0
    1.4400    2.0000   65.4960 N   0  0  0  0  0  0  0  0  0  0  0  0
   -1.2570    4.6430   64.8370 C   0  0  0  0  0  0  0  0  0  0  0  0
   -0.9700    5.6690   65.8030 O   0  0  0  0  0  0  0  0  0  0  0  0
   -0.5650    6.8950   65.2320 C   0  0  0  0  0  0  0  0  0  0  0  0
   -0.2310    7.9860   66.2370 C   0  0  0  0  0  0  0  0  0  0  0  0
   -0.6360    9.2340   65.9220 N   0  0  0  0  0  0  0  0  0  0  0  0
   -0.4060   10.2950   66.7150 C   0  0  0  0  0  0  0  0  0  0  0  0
   -0.8580   11.5010   66.2990 N   0  0  0  0  0  0  0  0  0  0  0  0
    0.2990   10.1450   67.9180 C   0  0  0  0  0  0  0  0  0  0  0  0
    0.4700    7.7790   67.4390 C   0  0  0  0  0  0  0  0  0  0  0  0
    0.7490    8.8740   68.2760 C   0  0  0  0  0  0  0  0  0  0  0  0
    1.4610    8.6790   69.5970 C   0  0  0  0  0  0  0  0  0  0  0  0
  2  1  1  0
  3  2  2  0
  7  2  1  0
  4  3  1  0
  5  4  1  0
  6  4  2  0
  8  6  1  0
  8  7  2  0
  9  8  1  0
 10  9  1  0
 11 10  1  0
 12 11  1  0
 14 11  1  0
 13 12  1  0
 15 14  1  0
 16 15  1  0
 17 16  1  0
 18 17  2  0
 22 17  1  0
 19 18  1  0
 20 19  1  0
 21 19  2  0
 23 21  1  0
 23 22  2  0
 24 23  1  0
A    1
N22
A    2
C22
A    3
C23
A    4
C24
A    5
C27
A    6
C25
A    7
N21
A    8
C26
A    9
C15
A   10
O14
A   11
C11
A   12
C12
A   13
N13
A   14
C10
A   15
O09
A   16
C08
A   17
C06
A   18
N01
A   19
C02
A   20
N02
A   21
C03
A   22
C05
A   23
C04
A   24
C07
M  END
>  <Id>  (32) 
4K5I_1Q7_B_503

>  <ChainId>  (32) 
B

>  <AsymId>  (32) 
L

>  <SeqNum>  (32) 
503

>  <Name>  (32) 
6,6'-{[(2R)-3-aminopropane-1,2-diyl]bis(oxymethanediyl)}bis(4-methylpyridin-2-amine)

>  <SystematicName>  (32) 
6-[[(2R)-3-azanyl-2-[(6-azanyl-4-methyl-pyridin-2-yl)methoxy]propoxy]methyl]-4-methyl-pyridin-2-amine

>  <Synonyms>  (32) 


>  <Type>  (32) 
NON-POLYMER

>  <Formula>  (32) 
C17 H25 N5 O2

>  <ObservedFormula>  (32) 
C17 N5 O2

>  <MolecularWeight>  (32) 
331.413

>  <ModifiedDate>  (32) 
2013-09-13

>  <Parent>  (32) 


>  <OneLetterCode>  (32) 


>  <SubcomponentList>  (32) 


>  <AmbiguousFlag>  (32) 
N

>  <InsertionCode>  (32) 


>  <InstanceId>  (32) 
4K5I_1Q7_B_503

>  <ChemCompId>  (32) 
1Q7

>  <PdbId>  (32) 
4K5I

>  <ResidueNumber>  (32) 
503

>  <InChI>  (32) 
InChI=1S/C17H25N5O2/c1-11-3-13(21-16(19)5-11)8-23-10-15(7-18)24-9-14-4-12(2)6-17(20)22-14/h3-6,15H,7-10,18H2,1-2H3,(H2,19,21)(H2,20,22)/t15-/m1/s1

>  <InChIKey>  (32) 
FVCUZJIKIIWHJD-OAHLLOKOSA-N

>  <SMILES>  (32) 
Cc1cc(nc(c1)N)COC[C@@H](CN)OCc2cc(cc(n2)N)C

>  <MissingHeavyAtoms>  (32) 
0

>  <Model>  (32) 
1

>  <AltIds>  (32) 


>  <pKI>  (32) 
4.82

>  <ChemblID>  (32) 
CHEMBL2430144

>  <standardized_canonical_smiles>  (32) 
Cc1cc(N)nc(COC[C@@H](CN)OCc2cc(C)cc(N)n2)c1

$$$$
4K5J_Q14_B_503
     RDKit          3D

 25 26  0  0  0  0  0  0  0  0999 V2000
   -2.0080   -2.5880   60.2430 N   0  0  0  0  0  0  0  0  0  0  0  0
   -1.0240   -1.9070   60.8860 C   0  0  0  0  0  0  0  0  0  0  0  0
    0.0800   -2.5900   61.4030 C   0  0  0  0  0  0  0  0  0  0  0  0
    1.0750   -1.8710   62.0580 C   0  0  0  0  0  0  0  0  0  0  0  0
    2.2490   -2.6130   62.6140 C   0  0  0  0  0  0  0  0  0  0  0  0
    0.9680   -0.4850   62.1890 C   0  0  0  0  0  0  0  0  0  0  0  0
   -1.1190   -0.5580   61.0240 N   0  0  0  0  0  0  0  0  0  0  0  0
   -0.1590    0.1640   61.6580 C   0  0  0  0  0  0  0  0  0  0  0  0
   -0.3810    1.6620   61.7630 C   0  0  0  0  0  0  0  0  0  0  0  0
    0.5990    2.3250   62.5730 O   0  0  0  0  0  0  0  0  0  0  0  0
    0.2790    2.6320   63.9470 C   0  0  0  0  0  0  0  0  0  0  0  0
    0.0370    1.3730   64.8040 C   0  0  0  0  0  0  0  0  0  0  0  0
    1.2010    0.9390   65.5860 N   0  0  0  0  0  0  0  0  0  0  0  0
   -0.8510    3.6520   64.0870 C   0  0  0  0  0  0  0  0  0  0  0  0
   -0.3620    4.6130   65.1550 C   0  0  0  0  0  0  0  0  0  0  0  0
   -0.9880    5.8970   65.2340 O   0  0  0  0  0  0  0  0  0  0  0  0
    0.1060    6.7880   65.2140 C   0  0  0  0  0  0  0  0  0  0  0  0
    0.1360    7.9370   66.1940 C   0  0  0  0  0  0  0  0  0  0  0  0
   -0.4340    9.1130   65.8290 N   0  0  0  0  0  0  0  0  0  0  0  0
   -0.3980   10.2080   66.6150 C   0  0  0  0  0  0  0  0  0  0  0  0
   -1.0030   11.3590   66.1820 N   0  0  0  0  0  0  0  0  0  0  0  0
    0.2620   10.1360   67.8460 C   0  0  0  0  0  0  0  0  0  0  0  0
    0.8090    7.8260   67.4080 C   0  0  0  0  0  0  0  0  0  0  0  0
    0.8680    8.9360   68.2330 C   0  0  0  0  0  0  0  0  0  0  0  0
    1.5280    8.8340   69.5720 C   0  0  0  0  0  0  0  0  0  0  0  0
  2  1  1  0
  3  2  2  0
  7  2  1  0
  4  3  1  0
  5  4  1  0
  6  4  2  0
  8  6  1  0
  8  7  2  0
  9  8  1  0
 10  9  1  0
 11 10  1  0
 12 11  1  0
 14 11  1  0
 13 12  1  0
 15 14  1  0
 16 15  1  0
 17 16  1  0
 18 17  1  0
 19 18  2  0
 23 18  1  0
 20 19  1  0
 21 20  1  0
 22 20  2  0
 24 22  1  0
 24 23  2  0
 25 24  1  0
A    1
N22
A    2
C22
A    3
C23
A    4
C24
A    5
C27
A    6
C25
A    7
N21
A    8
C26
A    9
C28
A   10
O29
A   11
C12
A   12
C13
A   13
N14
A   14
C11
A   15
C10
A   16
O09
A   17
C08
A   18
C06
A   19
N01
A   20
C02
A   21
N02
A   22
C03
A   23
C05
A   24
C04
A   25
C07
M  END
>  <Id>  (33) 
4K5J_Q14_B_503

>  <ChainId>  (33) 
B

>  <AsymId>  (33) 
L

>  <SeqNum>  (33) 
503

>  <Name>  (33) 
6-[({(2S)-1-amino-4-[(6-amino-4-methylpyridin-2-yl)methoxy]butan-2-yl}oxy)methyl]-4-methylpyridin-2-amine

>  <SystematicName>  (33) 
6-[[(3S)-4-azanyl-3-[(6-azanyl-4-methyl-pyridin-2-yl)methoxy]butoxy]methyl]-4-methyl-pyridin-2-amine

>  <Synonyms>  (33) 


>  <Type>  (33) 
NON-POLYMER

>  <Formula>  (33) 
C18 H27 N5 O2

>  <ObservedFormula>  (33) 
C18 N5 O2

>  <MolecularWeight>  (33) 
345.439

>  <ModifiedDate>  (33) 
2013-09-13

>  <Parent>  (33) 


>  <OneLetterCode>  (33) 


>  <SubcomponentList>  (33) 


>  <AmbiguousFlag>  (33) 
N

>  <InsertionCode>  (33) 


>  <InstanceId>  (33) 
4K5J_Q14_B_503

>  <ChemCompId>  (33) 
Q14

>  <PdbId>  (33) 
4K5J

>  <ResidueNumber>  (33) 
503

>  <InChI>  (33) 
InChI=1S/C18H27N5O2/c1-12-5-14(22-17(20)7-12)10-24-4-3-16(9-19)25-11-15-6-13(2)8-18(21)23-15/h5-8,16H,3-4,9-11,19H2,1-2H3,(H2,20,22)(H2,21,23)/t16-/m0/s1

>  <InChIKey>  (33) 
ZLWWYKPNQBCOKF-INIZCTEOSA-N

>  <SMILES>  (33) 
Cc1cc(nc(c1)N)COCC[C@@H](CN)OCc2cc(cc(n2)N)C

>  <MissingHeavyAtoms>  (33) 
0

>  <Model>  (33) 
1

>  <AltIds>  (33) 


>  <pKI>  (33) 
4.69

>  <ChemblID>  (33) 
CHEMBL2430148

>  <standardized_canonical_smiles>  (33) 
Cc1cc(N)nc(COCC[C@@H](CN)OCc2cc(C)cc(N)n2)c1

$$$$
4K5K_Q13_B_503
     RDKit          3D

 25 26  0  0  0  0  0  0  0  0999 V2000
    3.3400   -1.1820   60.8950 N   0  0  0  0  0  0  0  0  0  0  0  0
    2.1690   -1.4890   61.4870 C   0  0  0  0  0  0  0  0  0  0  0  0
    1.5570   -2.7260   61.2630 C   0  0  0  0  0  0  0  0  0  0  0  0
    0.3470   -3.0190   61.8850 C   0  0  0  0  0  0  0  0  0  0  0  0
   -0.3200   -4.3540   61.6430 C   0  0  0  0  0  0  0  0  0  0  0  0
   -0.2200   -2.0540   62.7280 C   0  0  0  0  0  0  0  0  0  0  0  0
    1.6070   -0.5710   62.2970 N   0  0  0  0  0  0  0  0  0  0  0  0
    0.4360   -0.8270   62.9210 C   0  0  0  0  0  0  0  0  0  0  0  0
   -0.1300    0.2500   63.8170 C   0  0  0  0  0  0  0  0  0  0  0  0
    0.2680    1.5310   63.3010 O   0  0  0  0  0  0  0  0  0  0  0  0
   -0.6900    2.5910   63.4320 C   0  0  0  0  0  0  0  0  0  0  0  0
   -2.0890    2.0440   63.7030 C   0  0  0  0  0  0  0  0  0  0  0  0
   -0.2500    3.5780   64.5130 C   0  0  0  0  0  0  0  0  0  0  0  0
    1.0380    4.1130   64.1390 N   0  0  0  0  0  0  0  0  0  0  0  0
   -1.2010    4.7630   64.6570 C   0  0  0  0  0  0  0  0  0  0  0  0
   -0.7550    5.6140   65.7020 O   0  0  0  0  0  0  0  0  0  0  0  0
   -0.5700    6.9330   65.2520 C   0  0  0  0  0  0  0  0  0  0  0  0
   -0.1610    7.9640   66.2890 C   0  0  0  0  0  0  0  0  0  0  0  0
   -0.4950    9.2170   65.9690 N   0  0  0  0  0  0  0  0  0  0  0  0
   -0.2560   10.2710   66.7540 C   0  0  0  0  0  0  0  0  0  0  0  0
   -0.6390   11.4890   66.3140 N   0  0  0  0  0  0  0  0  0  0  0  0
    0.4710   10.1150   67.9480 C   0  0  0  0  0  0  0  0  0  0  0  0
    0.8730    8.8310   68.3000 C   0  0  0  0  0  0  0  0  0  0  0  0
    0.5510    7.7300   67.4780 C   0  0  0  0  0  0  0  0  0  0  0  0
    1.5880    8.6760   69.6140 C   0  0  0  0  0  0  0  0  0  0  0  0
  2  1  1  0
  3  2  2  0
  7  2  1  0
  4  3  1  0
  5  4  1  0
  6  4  2  0
  8  6  1  0
  8  7  2  0
  9  8  1  0
 10  9  1  0
 11 10  1  0
 12 11  1  0
 13 11  1  0
 14 13  1  0
 15 13  1  0
 16 15  1  0
 17 16  1  0
 18 17  1  0
 19 18  2  0
 24 18  1  0
 20 19  1  0
 21 20  1  0
 22 20  2  0
 23 22  1  0
 24 23  2  0
 25 23  1  0
A    1
N22
A    2
C22
A    3
C23
A    4
C24
A    5
C27
A    6
C25
A    7
N21
A    8
C26
A    9
C16
A   10
O15
A   11
C13
A   12
C14
A   13
C11
A   14
N12
A   15
C10
A   16
O09
A   17
C08
A   18
C06
A   19
N01
A   20
C02
A   21
N02
A   22
C03
A   23
C04
A   24
C05
A   25
C07
M  END
>  <Id>  (34) 
4K5K_Q13_B_503

>  <ChainId>  (34) 
B

>  <AsymId>  (34) 
L

>  <SeqNum>  (34) 
503

>  <Name>  (34) 
6,6'-{[(2S,3S)-2-aminobutane-1,3-diyl]bis(oxymethanediyl)}bis(4-methylpyridin-2-amine)

>  <SystematicName>  (34) 
6-[[(2S,3S)-2-azanyl-3-[(6-azanyl-4-methyl-pyridin-2-yl)methoxy]butoxy]methyl]-4-methyl-pyridin-2-amine

>  <Synonyms>  (34) 


>  <Type>  (34) 
NON-POLYMER

>  <Formula>  (34) 
C18 H27 N5 O2

>  <ObservedFormula>  (34) 
C18 N5 O2

>  <MolecularWeight>  (34) 
345.439

>  <ModifiedDate>  (34) 
2013-09-13

>  <Parent>  (34) 


>  <OneLetterCode>  (34) 


>  <SubcomponentList>  (34) 


>  <AmbiguousFlag>  (34) 
N

>  <InsertionCode>  (34) 


>  <InstanceId>  (34) 
4K5K_Q13_B_503

>  <ChemCompId>  (34) 
Q13

>  <PdbId>  (34) 
4K5K

>  <ResidueNumber>  (34) 
503

>  <InChI>  (34) 
InChI=1S/C18H27N5O2/c1-11-4-14(22-17(20)6-11)8-24-10-16(19)13(3)25-9-15-5-12(2)7-18(21)23-15/h4-7,13,16H,8-10,19H2,1-3H3,(H2,20,22)(H2,21,23)/t13-,16-/m0/s1

>  <InChIKey>  (34) 
BGQWILAWEWZMTG-BBRMVZONSA-N

>  <SMILES>  (34) 
Cc1cc(nc(c1)N)COC[C@@H]([C@H](C)OCc2cc(cc(n2)N)C)N

>  <MissingHeavyAtoms>  (34) 
0

>  <Model>  (34) 
1

>  <AltIds>  (34) 


>  <pKI>  (34) 
5.59

>  <ChemblID>  (34) 
CHEMBL2430150

>  <standardized_canonical_smiles>  (34) 
Cc1cc(N)nc(COC[C@H](N)[C@H](C)OCc2cc(C)cc(N)n2)c1

$$$$
4CX0_Q16_B_800
     RDKit          3D

 26 28  0  0  0  0  0  0  0  0999 V2000
    4.8610   -0.4560   62.6390 N   0  0  0  0  0  0  0  0  0  0  0  0
    3.7290   -1.0420   62.2540 C   0  0  0  0  0  0  0  0  0  0  0  0
    3.7220   -2.3940   61.9320 C   0  0  0  0  0  0  0  0  0  0  0  0
    2.5200   -2.9840   61.5410 C   0  0  0  0  0  0  0  0  0  0  0  0
    2.4720   -4.4550   61.1940 C   0  0  0  0  0  0  0  0  0  0  0  0
    1.3630   -2.2080   61.4630 C   0  0  0  0  0  0  0  0  0  0  0  0
    2.6270   -0.2880   62.1590 N   0  0  0  0  0  0  0  0  0  0  0  0
    1.4500   -0.8650   61.7770 C   0  0  0  0  0  0  0  0  0  0  0  0
    0.2140   -0.0100   61.7170 C   0  0  0  0  0  0  0  0  0  0  0  0
    0.0830    0.4620   63.0690 O   0  0  0  0  0  0  0  0  0  0  0  0
   -0.0280    3.4610   64.7230 C   0  0  0  0  0  0  0  0  0  0  0  0
   -0.0440    2.7700   62.4240 C   0  0  0  0  0  0  0  0  0  0  0  0
    0.4010    3.7280   63.3880 N   0  0  0  0  0  0  0  0  0  0  0  0
   -0.6090    2.0620   64.6940 C   0  0  0  0  0  0  0  0  0  0  0  0
   -1.0190    4.5550   65.0160 C   0  0  0  0  0  0  0  0  0  0  0  0
   -0.6550    1.6530   63.2300 C   0  0  0  0  0  0  0  0  0  0  0  0
   -0.1750    5.6110   65.4430 O   0  0  0  0  0  0  0  0  0  0  0  0
   -0.7030    6.8660   65.1510 C   0  0  0  0  0  0  0  0  0  0  0  0
   -0.2500    7.9540   66.0830 C   0  0  0  0  0  0  0  0  0  0  0  0
   -0.5890    9.2140   65.7230 N   0  0  0  0  0  0  0  0  0  0  0  0
   -0.2820   10.2750   66.4860 C   0  0  0  0  0  0  0  0  0  0  0  0
   -0.6770   11.5060   66.0530 N   0  0  0  0  0  0  0  0  0  0  0  0
    0.4470   10.1060   67.6850 C   0  0  0  0  0  0  0  0  0  0  0  0
    0.7970    8.8150   68.0740 C   0  0  0  0  0  0  0  0  0  0  0  0
    0.4520    7.7240   67.2670 C   0  0  0  0  0  0  0  0  0  0  0  0
    1.5280    8.5860   69.3640 C   0  0  0  0  0  0  0  0  0  0  0  0
  2  1  1  0
  3  2  2  0
  7  2  1  0
  4  3  1  0
  5  4  1  0
  6  4  2  0
  8  6  1  0
  8  7  2  0
  9  8  1  0
 10  9  1  0
 16 10  1  0
 13 11  1  0
 14 11  1  0
 15 11  1  0
 13 12  1  0
 16 12  1  0
 16 14  1  0
 17 15  1  0
 18 17  1  0
 19 18  1  0
 20 19  2  0
 25 19  1  0
 21 20  1  0
 22 21  1  0
 23 21  2  0
 24 23  1  0
 25 24  2  0
 26 24  1  0
A    1
N22
A    2
C22
A    3
C23
A    4
C24
A    5
C27
A    6
C25
A    7
N21
A    8
C26
A    9
C12
A   10
O11
A   11
C2'
A   12
C5'
A   13
N1'
A   14
C3'
A   15
C10
A   16
C4'
A   17
O09
A   18
C08
A   19
C06
A   20
N01
A   21
C02
A   22
N02
A   23
C03
A   24
C04
A   25
C05
A   26
C07
M  END
>  <Id>  (35) 
4CX0_Q16_B_800

>  <ChainId>  (35) 
B

>  <AsymId>  (35) 
L

>  <SeqNum>  (35) 
800

>  <Name>  (35) 
6-((((3S, 5R)-5-(((6-amino-4-methylpyridin-2-yl)methoxy)methyl)pyrrolidin-3-yl)oxy)methyl)-4-methylpyridin-2-amine

>  <SystematicName>  (35) 
6-[[(2R,4S)-4-[(6-azanyl-4-methyl-pyridin-2-yl)methoxy]pyrrolidin-2-yl]methoxymethyl]-4-methyl-pyridin-2-amine

>  <Synonyms>  (35) 


>  <Type>  (35) 
non-polymer

>  <Formula>  (35) 
C19 H27 N5 O2

>  <ObservedFormula>  (35) 
C19 N5 O2

>  <MolecularWeight>  (35) 
357.45

>  <ModifiedDate>  (35) 
2014-09-05

>  <Parent>  (35) 


>  <OneLetterCode>  (35) 


>  <SubcomponentList>  (35) 


>  <AmbiguousFlag>  (35) 
N

>  <InsertionCode>  (35) 


>  <InstanceId>  (35) 
4CX0_Q16_B_800

>  <ChemCompId>  (35) 
Q16

>  <PdbId>  (35) 
4CX0

>  <ResidueNumber>  (35) 
800

>  <InChI>  (35) 
InChI=1S/C19H27N5O2/c1-12-3-15(23-18(20)5-12)10-25-9-14-7-17(8-22-14)26-11-16-4-13(2)6-19(21)24-16/h3-6,14,17,22H,7-11H2,1-2H3,(H2,20,23)(H2,21,24)/t14-,17+/m1/s1

>  <InChIKey>  (35) 
NUKSCYDKRQJOFO-PBHICJAKSA-N

>  <SMILES>  (35) 
Cc1cc(nc(c1)N)COC[C@H]2C[C@@H](CN2)OCc3cc(cc(n3)N)C

>  <MissingHeavyAtoms>  (35) 
0

>  <Model>  (35) 
1

>  <AltIds>  (35) 


>  <pKI>  (35) 
5.17

>  <ChemblID>  (35) 
CHEMBL3109188

>  <standardized_canonical_smiles>  (35) 
Cc1cc(N)nc(COC[C@H]2C[C@H](OCc3cc(C)cc(N)n3)CN2)c1

$$$$
4C3A_Q16_B_800
     RDKit          3D

 26 28  0  0  0  0  0  0  0  0999 V2000
    3.3360   -4.0380   62.2430 N   0  0  0  0  0  0  0  0  0  0  0  0
    2.0940   -3.5580   62.0050 C   0  0  0  0  0  0  0  0  0  0  0  0
    1.0520   -4.4360   61.6840 C   0  0  0  0  0  0  0  0  0  0  0  0
   -0.2290   -3.9260   61.4360 C   0  0  0  0  0  0  0  0  0  0  0  0
   -1.3720   -4.8520   61.0880 C   0  0  0  0  0  0  0  0  0  0  0  0
   -0.4290   -2.5430   61.5180 C   0  0  0  0  0  0  0  0  0  0  0  0
    1.8790   -2.2210   62.0840 N   0  0  0  0  0  0  0  0  0  0  0  0
    0.6510   -1.7070   61.8470 C   0  0  0  0  0  0  0  0  0  0  0  0
    0.4610   -0.2160   61.9550 C   0  0  0  0  0  0  0  0  0  0  0  0
    0.0980    0.1220   63.3090 O   0  0  0  0  0  0  0  0  0  0  0  0
   -0.0060    3.2350   64.6610 C   0  0  0  0  0  0  0  0  0  0  0  0
   -0.2210    2.3480   62.3960 C   0  0  0  0  0  0  0  0  0  0  0  0
    0.3520    3.3480   63.2700 N   0  0  0  0  0  0  0  0  0  0  0  0
   -0.7210    1.9090   64.7640 C   0  0  0  0  0  0  0  0  0  0  0  0
   -0.9160    4.3910   65.0190 C   0  0  0  0  0  0  0  0  0  0  0  0
   -0.7220    1.2940   63.3660 C   0  0  0  0  0  0  0  0  0  0  0  0
   -0.0800    5.4840   65.3870 O   0  0  0  0  0  0  0  0  0  0  0  0
   -0.8270    6.6750   65.3210 C   0  0  0  0  0  0  0  0  0  0  0  0
   -0.3640    7.7750   66.2600 C   0  0  0  0  0  0  0  0  0  0  0  0
   -0.7220    9.0340   65.9050 N   0  0  0  0  0  0  0  0  0  0  0  0
   -0.4050   10.1050   66.6600 C   0  0  0  0  0  0  0  0  0  0  0  0
   -0.7860   11.3240   66.2170 N   0  0  0  0  0  0  0  0  0  0  0  0
    0.3240    9.9500   67.8530 C   0  0  0  0  0  0  0  0  0  0  0  0
    0.7060    8.6520   68.2350 C   0  0  0  0  0  0  0  0  0  0  0  0
    0.3450    7.5440   67.4510 C   0  0  0  0  0  0  0  0  0  0  0  0
    1.4490    8.4720   69.5260 C   0  0  0  0  0  0  0  0  0  0  0  0
  2  1  1  0
  3  2  2  0
  7  2  1  0
  4  3  1  0
  5  4  1  0
  6  4  2  0
  8  6  1  0
  8  7  2  0
  9  8  1  0
 10  9  1  0
 16 10  1  0
 13 11  1  0
 14 11  1  0
 15 11  1  0
 13 12  1  0
 16 12  1  0
 16 14  1  0
 17 15  1  0
 18 17  1  0
 19 18  1  0
 20 19  2  0
 25 19  1  0
 21 20  1  0
 22 21  1  0
 23 21  2  0
 24 23  1  0
 25 24  2  0
 26 24  1  0
A    1
N22
A    2
C22
A    3
C23
A    4
C24
A    5
C27
A    6
C25
A    7
N21
A    8
C26
A    9
C12
A   10
O11
A   11
C2'
A   12
C5'
A   13
N1'
A   14
C3'
A   15
C10
A   16
C4'
A   17
O09
A   18
C08
A   19
C06
A   20
N01
A   21
C02
A   22
N02
A   23
C03
A   24
C04
A   25
C05
A   26
C07
M  END
>  <Id>  (36) 
4C3A_Q16_B_800

>  <ChainId>  (36) 
B

>  <AsymId>  (36) 
L

>  <SeqNum>  (36) 
800

>  <Name>  (36) 
6-((((3S, 5R)-5-(((6-amino-4-methylpyridin-2-yl)methoxy)methyl)pyrrolidin-3-yl)oxy)methyl)-4-methylpyridin-2-amine

>  <SystematicName>  (36) 
6-[[(2R,4S)-4-[(6-azanyl-4-methyl-pyridin-2-yl)methoxy]pyrrolidin-2-yl]methoxymethyl]-4-methyl-pyridin-2-amine

>  <Synonyms>  (36) 


>  <Type>  (36) 
non-polymer

>  <Formula>  (36) 
C19 H27 N5 O2

>  <ObservedFormula>  (36) 
C19 N5 O2

>  <MolecularWeight>  (36) 
357.45

>  <ModifiedDate>  (36) 
2014-09-05

>  <Parent>  (36) 


>  <OneLetterCode>  (36) 


>  <SubcomponentList>  (36) 


>  <AmbiguousFlag>  (36) 
N

>  <InsertionCode>  (36) 


>  <InstanceId>  (36) 
4C3A_Q16_B_800

>  <ChemCompId>  (36) 
Q16

>  <PdbId>  (36) 
4C3A

>  <ResidueNumber>  (36) 
800

>  <InChI>  (36) 
InChI=1S/C19H27N5O2/c1-12-3-15(23-18(20)5-12)10-25-9-14-7-17(8-22-14)26-11-16-4-13(2)6-19(21)24-16/h3-6,14,17,22H,7-11H2,1-2H3,(H2,20,23)(H2,21,24)/t14-,17+/m1/s1

>  <InChIKey>  (36) 
NUKSCYDKRQJOFO-PBHICJAKSA-N

>  <SMILES>  (36) 
Cc1cc(nc(c1)N)COC[C@H]2C[C@@H](CN2)OCc3cc(cc(n3)N)C

>  <MissingHeavyAtoms>  (36) 
0

>  <Model>  (36) 
1

>  <AltIds>  (36) 


>  <pKI>  (36) 
5.17

>  <ChemblID>  (36) 
CHEMBL3109188

>  <standardized_canonical_smiles>  (36) 
Cc1cc(N)nc(COC[C@H]2C[C@H](OCc3cc(C)cc(N)n3)CN2)c1

$$$$
4LUW_QJ8_B_503
     RDKit          3D

 26 28  0  0  0  0  0  0  0  0999 V2000
   -2.6860   -3.6580   61.7960 N   0  0  0  0  0  0  0  0  0  0  0  0
   -1.3990   -3.2510   61.9440 C   0  0  0  0  0  0  0  0  0  0  0  0
   -0.4360   -3.7340   61.0630 C   0  0  0  0  0  0  0  0  0  0  0  0
    0.8860   -3.3090   61.2150 C   0  0  0  0  0  0  0  0  0  0  0  0
    1.9420   -3.8050   60.2850 C   0  0  0  0  0  0  0  0  0  0  0  0
    1.2610   -2.4270   62.2220 C   0  0  0  0  0  0  0  0  0  0  0  0
   -1.0270   -2.3820   62.9380 N   0  0  0  0  0  0  0  0  0  0  0  0
    0.2750   -1.9740   63.0860 C   0  0  0  0  0  0  0  0  0  0  0  0
    0.6810   -1.0140   64.1720 C   0  0  0  0  0  0  0  0  0  0  0  0
   -0.1110    0.1530   63.9780 O   0  0  0  0  0  0  0  0  0  0  0  0
    0.6060    1.3100   63.5450 C   0  0  0  0  0  0  0  0  0  0  0  0
   -0.2450    2.0300   62.5090 C   0  0  0  0  0  0  0  0  0  0  0  0
   -0.6700    3.2510   63.1870 N   0  0  0  0  0  0  0  0  0  0  0  0
    0.7660    2.2760   64.7280 C   0  0  0  0  0  0  0  0  0  0  0  0
   -0.2580    3.3890   64.5700 C   0  0  0  0  0  0  0  0  0  0  0  0
    0.3610    4.7580   64.8260 C   0  0  0  0  0  0  0  0  0  0  0  0
   -0.2600    5.4550   65.9220 O   0  0  0  0  0  0  0  0  0  0  0  0
   -0.6500    6.7840   65.5790 C   0  0  0  0  0  0  0  0  0  0  0  0
   -0.1630    7.9170   66.4650 C   0  0  0  0  0  0  0  0  0  0  0  0
   -0.5440    9.1610   66.1070 N   0  0  0  0  0  0  0  0  0  0  0  0
   -0.2050   10.2510   66.8200 C   0  0  0  0  0  0  0  0  0  0  0  0
   -0.6340   11.4620   66.3840 N   0  0  0  0  0  0  0  0  0  0  0  0
    0.5980   10.1200   67.9630 C   0  0  0  0  0  0  0  0  0  0  0  0
    1.0090    8.8440   68.3560 C   0  0  0  0  0  0  0  0  0  0  0  0
    0.6280    7.7370   67.6120 C   0  0  0  0  0  0  0  0  0  0  0  0
    1.8460    8.6600   69.5850 C   0  0  0  0  0  0  0  0  0  0  0  0
  2  1  1  0
  3  2  2  0
  7  2  1  0
  4  3  1  0
  5  4  1  0
  6  4  2  0
  8  6  1  0
  8  7  2  0
  9  8  1  0
 10  9  1  0
 11 10  1  0
 12 11  1  0
 14 11  1  0
 13 12  1  0
 15 13  1  0
 15 14  1  0
 16 15  1  0
 17 16  1  0
 18 17  1  0
 19 18  1  0
 20 19  2  0
 25 19  1  0
 21 20  1  0
 22 21  1  0
 23 21  2  0
 24 23  1  0
 25 24  2  0
 26 24  1  0
A    1
N22
A    2
C22
A    3
C23
A    4
C24
A    5
C27
A    6
C25
A    7
N21
A    8
C26
A    9
C12
A   10
O11
A   11
C4'
A   12
C5'
A   13
N1'
A   14
C3'
A   15
C2'
A   16
C10
A   17
O09
A   18
C08
A   19
C06
A   20
N01
A   21
C02
A   22
N02
A   23
C03
A   24
C04
A   25
C05
A   26
C07
M  END
>  <Id>  (37) 
4LUW_QJ8_B_503

>  <ChainId>  (37) 
B

>  <AsymId>  (37) 
L

>  <SeqNum>  (37) 
503

>  <Name>  (37) 
6-({[(3R,5S)-5-{[(6-amino-4-methylpyridin-2-yl)methoxy]methyl}pyrrolidin-3-yl]oxy}methyl)-4-methylpyridin-2-amine

>  <SystematicName>  (37) 
6-[[(2S,4R)-4-[(6-azanyl-4-methyl-pyridin-2-yl)methoxy]pyrrolidin-2-yl]methoxymethyl]-4-methyl-pyridin-2-amine

>  <Synonyms>  (37) 


>  <Type>  (37) 
NON-POLYMER

>  <Formula>  (37) 
C19 H27 N5 O2

>  <ObservedFormula>  (37) 
C19 N5 O2

>  <MolecularWeight>  (37) 
357.45

>  <ModifiedDate>  (37) 
2013-10-18

>  <Parent>  (37) 


>  <OneLetterCode>  (37) 


>  <SubcomponentList>  (37) 


>  <AmbiguousFlag>  (37) 
N

>  <InsertionCode>  (37) 


>  <InstanceId>  (37) 
4LUW_QJ8_B_503

>  <ChemCompId>  (37) 
QJ8

>  <PdbId>  (37) 
4LUW

>  <ResidueNumber>  (37) 
503

>  <InChI>  (37) 
InChI=1S/C19H27N5O2/c1-12-3-15(23-18(20)5-12)10-25-9-14-7-17(8-22-14)26-11-16-4-13(2)6-19(21)24-16/h3-6,14,17,22H,7-11H2,1-2H3,(H2,20,23)(H2,21,24)/t14-,17+/m0/s1

>  <InChIKey>  (37) 
NUKSCYDKRQJOFO-WMLDXEAASA-N

>  <SMILES>  (37) 
Cc1cc(nc(c1)N)COC[C@@H]2C[C@H](CN2)OCc3cc(cc(n3)N)C

>  <MissingHeavyAtoms>  (37) 
0

>  <Model>  (37) 
1

>  <AltIds>  (37) 


>  <pKI>  (37) 
5.66

>  <ChemblID>  (37) 
CHEMBL3109186

>  <standardized_canonical_smiles>  (37) 
Cc1cc(N)nc(COC[C@@H]2C[C@@H](OCc3cc(C)cc(N)n3)CN2)c1

$$$$
4KCS_5H4_B_503
     RDKit          3D

 27 29  0  0  0  0  0  0  0  0999 V2000
   -1.5200   -2.7170   60.8020 F   0  0  0  0  0  0  0  0  0  0  0  0
   -0.4560   -1.9940   61.1990 C   0  0  0  0  0  0  0  0  0  0  0  0
    0.7490   -2.6590   61.4280 C   0  0  0  0  0  0  0  0  0  0  0  0
    1.8400   -1.9240   61.8370 C   0  0  0  0  0  0  0  0  0  0  0  0
    1.7190   -0.5510   62.0150 C   0  0  0  0  0  0  0  0  0  0  0  0
   -0.5780   -0.6030   61.3790 C   0  0  0  0  0  0  0  0  0  0  0  0
    0.5260    0.1310   61.8070 C   0  0  0  0  0  0  0  0  0  0  0  0
    0.5060    1.6390   62.0320 C   0  0  0  0  0  0  0  0  0  0  0  0
    0.2120    2.0820   63.4790 C   0  0  0  0  0  0  0  0  0  0  0  0
   -0.7620    3.2000   63.5320 N   0  0  0  0  0  0  0  0  0  0  0  0
   -2.0310    2.5880   62.9820 C   0  0  0  0  0  0  0  0  0  0  0  0
   -3.1100    3.5480   62.4890 C   0  0  0  0  0  0  0  0  0  0  0  0
   -1.0170    3.7370   64.9060 C   0  0  0  0  0  0  0  0  0  0  0  0
   -0.2680    4.9410   65.4240 C   0  0  0  0  0  0  0  0  0  0  0  0
    1.0430    4.7590   65.9100 C   0  0  0  0  0  0  0  0  0  0  0  0
    1.7760    5.8110   66.3850 C   0  0  0  0  0  0  0  0  0  0  0  0
    1.2490    7.0990   66.4070 C   0  0  0  0  0  0  0  0  0  0  0  0
   -0.0670    7.2890   65.9150 C   0  0  0  0  0  0  0  0  0  0  0  0
   -0.7880    6.1910   65.4280 C   0  0  0  0  0  0  0  0  0  0  0  0
   -0.6720    8.4900   66.0100 N   0  0  0  0  0  0  0  0  0  0  0  0
   -0.5620    9.3810   66.9750 C   0  0  0  0  0  0  0  0  0  0  0  0
   -0.8580   10.6240   66.7340 N   0  0  0  0  0  0  0  0  0  0  0  0
   -0.0480    9.0140   68.2870 C   0  0  0  0  0  0  0  0  0  0  0  0
    0.9670   10.1870   69.1080 S   0  0  0  0  0  0  0  0  0  0  0  0
    1.1030    9.0860   70.3780 C   0  0  0  0  0  0  0  0  0  0  0  0
    0.3920    7.9020   70.1400 C   0  0  0  0  0  0  0  0  0  0  0  0
   -0.2820    7.8190   68.9350 C   0  0  0  0  0  0  0  0  0  0  0  0
  2  1  1  0
  3  2  2  0
  6  2  1  0
  4  3  1  0
  5  4  2  0
  7  5  1  0
  7  6  2  0
  8  7  1  0
  9  8  1  0
 10  9  1  0
 11 10  1  0
 13 10  1  0
 12 11  1  0
 14 13  1  0
 15 14  2  0
 19 14  1  0
 16 15  1  0
 17 16  2  0
 18 17  1  0
 19 18  2  0
 20 18  1  0
 21 20  1  0
 22 21  2  0
 23 21  1  0
 24 23  1  0
 27 23  2  0
 25 24  1  0
 26 25  2  0
 27 26  1  0
A    1
F33
A    2
C33
A    3
C34
A    4
C35
A    5
C36
A    6
C32
A    7
C31
A    8
C22
A    9
C21
A   10
N18
A   11
C19
A   12
C20
A   13
C17
A   14
C15
A   15
C14
A   16
C13
A   17
C12
A   18
C11
A   19
C16
A   20
N07
A   21
C06
A   22
N08
A   23
C05
A   24
S01
A   25
C02
A   26
C03
A   27
C04
M  END
>  <Id>  (38) 
4KCS_5H4_B_503

>  <ChainId>  (38) 
B

>  <AsymId>  (38) 
K

>  <SeqNum>  (38) 
503

>  <Name>  (38) 
N-[3-({ethyl[2-(3-fluorophenyl)ethyl]amino}methyl)phenyl]thiophene-2-carboximidamide

>  <SystematicName>  (38) 
N-[3-[[ethyl-[2-(3-fluorophenyl)ethyl]amino]methyl]phenyl]thiophene-2-carboximidamide

>  <Synonyms>  (38) 


>  <Type>  (38) 
NON-POLYMER

>  <Formula>  (38) 
C22 H24 F N3 S

>  <ObservedFormula>  (38) 
C22 S F N3

>  <MolecularWeight>  (38) 
381.509

>  <ModifiedDate>  (38) 
2014-02-07

>  <Parent>  (38) 


>  <OneLetterCode>  (38) 


>  <SubcomponentList>  (38) 


>  <AmbiguousFlag>  (38) 
N

>  <InsertionCode>  (38) 


>  <InstanceId>  (38) 
4KCS_5H4_B_503

>  <ChemCompId>  (38) 
5H4

>  <PdbId>  (38) 
4KCS

>  <ResidueNumber>  (38) 
503

>  <InChI>  (38) 
InChI=1S/C22H24FN3S/c1-2-26(12-11-17-6-3-8-19(23)14-17)16-18-7-4-9-20(15-18)25-22(24)21-10-5-13-27-21/h3-10,13-15H,2,11-12,16H2,1H3,(H2,24,25)

>  <InChIKey>  (38) 
DFFRHUPAEPPGQC-UHFFFAOYSA-N

>  <SMILES>  (38) 
[H]/N=C(\c1cccs1)/Nc2cccc(c2)CN(CC)CCc3cccc(c3)F

>  <MissingHeavyAtoms>  (38) 
0

>  <Model>  (38) 
1

>  <AltIds>  (38) 


>  <pKI>  (38) 
4.66

>  <ChemblID>  (38) 
CHEMBL3125049

>  <standardized_canonical_smiles>  (38) 
CCN(CCc1cccc(F)c1)Cc1cccc(NC(=N)c2cccs2)c1

$$$$
4KCR_5H3_B_503
     RDKit          3D

 25 27  0  0  0  0  0  0  0  0999 V2000
    1.1580   -2.8730   60.7840 F   0  0  0  0  0  0  0  0  0  0  0  0
    0.2570   -1.8840   60.8260 C   0  0  0  0  0  0  0  0  0  0  0  0
   -1.0730   -2.1350   60.4410 C   0  0  0  0  0  0  0  0  0  0  0  0
   -2.0190   -1.1020   60.4750 C   0  0  0  0  0  0  0  0  0  0  0  0
    0.6700   -0.6160   61.2510 C   0  0  0  0  0  0  0  0  0  0  0  0
   -0.2730    0.4190   61.2800 C   0  0  0  0  0  0  0  0  0  0  0  0
   -1.6060    0.1760   60.8920 C   0  0  0  0  0  0  0  0  0  0  0  0
    0.1500    1.7950   61.7470 C   0  0  0  0  0  0  0  0  0  0  0  0
   -0.4050    2.0460   63.1490 C   0  0  0  0  0  0  0  0  0  0  0  0
   -0.0900    3.4000   63.5800 N   0  0  0  0  0  0  0  0  0  0  0  0
   -0.8590    3.9630   64.6660 C   0  0  0  0  0  0  0  0  0  0  0  0
   -0.0970    5.1240   65.2320 C   0  0  0  0  0  0  0  0  0  0  0  0
    1.2140    4.9580   65.6990 C   0  0  0  0  0  0  0  0  0  0  0  0
    1.8850    6.0560   66.2300 C   0  0  0  0  0  0  0  0  0  0  0  0
    1.2590    7.3100   66.2750 C   0  0  0  0  0  0  0  0  0  0  0  0
   -0.7250    6.3640   65.2810 C   0  0  0  0  0  0  0  0  0  0  0  0
   -0.0440    7.4790   65.7890 C   0  0  0  0  0  0  0  0  0  0  0  0
   -0.6830    8.6900   65.7980 N   0  0  0  0  0  0  0  0  0  0  0  0
   -0.5830    9.6310   66.7510 C   0  0  0  0  0  0  0  0  0  0  0  0
   -0.8850   10.9000   66.5030 N   0  0  0  0  0  0  0  0  0  0  0  0
   -0.1220    9.2150   68.0960 C   0  0  0  0  0  0  0  0  0  0  0  0
    0.9070   10.3770   68.8870 S   0  0  0  0  0  0  0  0  0  0  0  0
    1.1230    9.3300   70.2620 C   0  0  0  0  0  0  0  0  0  0  0  0
    0.3780    8.1560   70.0420 C   0  0  0  0  0  0  0  0  0  0  0  0
   -0.3290    8.0490   68.8460 C   0  0  0  0  0  0  0  0  0  0  0  0
  2  1  1  0
  3  2  2  0
  5  2  1  0
  4  3  1  0
  7  4  2  0
  6  5  2  0
  7  6  1  0
  8  6  1  0
  9  8  1  0
 10  9  1  0
 11 10  1  0
 12 11  1  0
 13 12  2  0
 16 12  1  0
 14 13  1  0
 15 14  2  0
 17 15  1  0
 17 16  2  0
 18 17  1  0
 19 18  1  0
 20 19  2  0
 21 19  1  0
 22 21  1  0
 25 21  2  0
 23 22  1  0
 24 23  2  0
 25 24  1  0
A    1
F23
A    2
C23
A    3
C24
A    4
C25
A    5
C22
A    6
C21
A    7
C26
A    8
C20
A    9
C19
A   10
N18
A   11
C17
A   12
C15
A   13
C14
A   14
C13
A   15
C12
A   16
C16
A   17
C11
A   18
N07
A   19
C06
A   20
N08
A   21
C05
A   22
S01
A   23
C02
A   24
C03
A   25
C04
M  END
>  <Id>  (39) 
4KCR_5H3_B_503

>  <ChainId>  (39) 
B

>  <AsymId>  (39) 
L

>  <SeqNum>  (39) 
503

>  <Name>  (39) 
N-[3-({[2-(3-fluorophenyl)ethyl]amino}methyl)phenyl]thiophene-2-carboximidamide

>  <SystematicName>  (39) 
N-[3-[[2-(3-fluorophenyl)ethylamino]methyl]phenyl]thiophene-2-carboximidamide

>  <Synonyms>  (39) 


>  <Type>  (39) 
NON-POLYMER

>  <Formula>  (39) 
C20 H20 F N3 S

>  <ObservedFormula>  (39) 
C20 S F N3

>  <MolecularWeight>  (39) 
353.456

>  <ModifiedDate>  (39) 
2014-02-07

>  <Parent>  (39) 


>  <OneLetterCode>  (39) 


>  <SubcomponentList>  (39) 


>  <AmbiguousFlag>  (39) 
N

>  <InsertionCode>  (39) 


>  <InstanceId>  (39) 
4KCR_5H3_B_503

>  <ChemCompId>  (39) 
5H3

>  <PdbId>  (39) 
4KCR

>  <ResidueNumber>  (39) 
503

>  <InChI>  (39) 
InChI=1S/C20H20FN3S/c21-17-6-1-4-15(12-17)9-10-23-14-16-5-2-7-18(13-16)24-20(22)19-8-3-11-25-19/h1-8,11-13,23H,9-10,14H2,(H2,22,24)

>  <InChIKey>  (39) 
QJSHZJYEBIUVCD-UHFFFAOYSA-N

>  <SMILES>  (39) 
[H]/N=C(\c1cccs1)/Nc2cccc(c2)CNCCc3cccc(c3)F

>  <MissingHeavyAtoms>  (39) 
0

>  <Model>  (39) 
1

>  <AltIds>  (39) 


>  <pKI>  (39) 
6.05

>  <ChemblID>  (39) 
CHEMBL3125048

>  <standardized_canonical_smiles>  (39) 
N=C(Nc1cccc(CNCCc2cccc(F)c2)c1)c1cccs1

$$$$
4KCQ_1QF_B_503
     RDKit          3D

 34 37  0  0  0  0  0  0  0  0999 V2000
   -1.9290   -2.9370   60.1820 N   0  0  0  0  0  0  0  0  0  0  0  0
   -1.3400   -3.9060   60.7410 C   0  0  0  0  0  0  0  0  0  0  0  0
   -2.0360   -5.2370   60.7460 C   0  0  0  0  0  0  0  0  0  0  0  0
   -1.0750   -6.6570   61.0090 S   0  0  0  0  0  0  0  0  0  0  0  0
   -2.4010   -7.7750   60.8930 C   0  0  0  0  0  0  0  0  0  0  0  0
   -3.5510   -7.0190   60.6520 C   0  0  0  0  0  0  0  0  0  0  0  0
   -3.3660   -5.6290   60.5660 C   0  0  0  0  0  0  0  0  0  0  0  0
   -0.1290   -3.7710   61.3140 N   0  0  0  0  0  0  0  0  0  0  0  0
    0.6070   -2.6250   61.4320 C   0  0  0  0  0  0  0  0  0  0  0  0
    0.0400   -1.3940   61.7960 C   0  0  0  0  0  0  0  0  0  0  0  0
    1.9850   -2.6790   61.2090 C   0  0  0  0  0  0  0  0  0  0  0  0
    2.7750   -1.5300   61.3310 C   0  0  0  0  0  0  0  0  0  0  0  0
    2.1990   -0.3090   61.6810 C   0  0  0  0  0  0  0  0  0  0  0  0
    0.8230   -0.2390   61.9160 C   0  0  0  0  0  0  0  0  0  0  0  0
    0.1770    1.0780   62.3140 C   0  0  0  0  0  0  0  0  0  0  0  0
    0.5090    1.4490   63.7000 N   0  0  0  0  0  0  0  0  0  0  0  0
    0.2890    0.3510   64.6670 C   0  0  0  0  0  0  0  0  0  0  0  0
    1.5040    0.0750   65.5540 C   0  0  0  0  0  0  0  0  0  0  0  0
   -0.2520    2.6450   64.0790 C   0  0  0  0  0  0  0  0  0  0  0  0
    0.4860    3.2640   65.2770 C   0  0  0  0  0  0  0  0  0  0  0  0
    0.1310    4.7230   65.4740 C   0  0  0  0  0  0  0  0  0  0  0  0
    1.1330    5.6500   65.8010 C   0  0  0  0  0  0  0  0  0  0  0  0
   -1.2000    5.1360   65.3530 C   0  0  0  0  0  0  0  0  0  0  0  0
   -1.5180    6.4730   65.5580 C   0  0  0  0  0  0  0  0  0  0  0  0
   -0.5280    7.4080   65.8800 C   0  0  0  0  0  0  0  0  0  0  0  0
    0.8180    7.0060   66.0040 C   0  0  0  0  0  0  0  0  0  0  0  0
   -0.9330    8.6950   65.9960 N   0  0  0  0  0  0  0  0  0  0  0  0
   -0.6150    9.5830   66.9190 C   0  0  0  0  0  0  0  0  0  0  0  0
   -0.7030   10.8420   66.6990 N   0  0  0  0  0  0  0  0  0  0  0  0
   -0.1200    9.0740   68.2090 C   0  0  0  0  0  0  0  0  0  0  0  0
    0.9440   10.2000   68.9740 S   0  0  0  0  0  0  0  0  0  0  0  0
    1.2220    9.1440   70.3030 C   0  0  0  0  0  0  0  0  0  0  0  0
    0.4830    7.9600   70.1040 C   0  0  0  0  0  0  0  0  0  0  0  0
   -0.2750    7.8900   68.9410 C   0  0  0  0  0  0  0  0  0  0  0  0
  2  1  2  0
  3  2  1  0
  8  2  1  0
  4  3  1  0
  7  3  2  0
  5  4  1  0
  6  5  2  0
  7  6  1  0
  9  8  1  0
 10  9  2  0
 11  9  1  0
 14 10  1  0
 12 11  2  0
 13 12  1  0
 14 13  2  0
 15 14  1  0
 16 15  1  0
 17 16  1  0
 19 16  1  0
 18 17  1  0
 20 19  1  0
 21 20  1  0
 22 21  2  0
 23 21  1  0
 26 22  1  0
 24 23  2  0
 25 24  1  0
 26 25  2  0
 27 25  1  0
 28 27  1  0
 29 28  2  0
 30 28  1  0
 31 30  1  0
 34 30  2  0
 32 31  1  0
 33 32  2  0
 34 33  1  0
A    1
N06
A    2
C06
A    3
C05
A    4
S01
A    5
C02
A    6
C03
A    7
C04
A    8
N07
A    9
C11
A   10
C16
A   11
C12
A   12
C13
A   13
C14
A   14
C15
A   15
C17
A   16
N18
A   17
C19
A   18
C20
A   19
C38
A   20
C37
A   21
C34
A   22
C35
A   23
C33
A   24
C32
A   25
C31
A   26
C36
A   27
N27
A   28
C26
A   29
N26
A   30
C25
A   31
S21
A   32
C22
A   33
C23
A   34
C24
M  END
>  <Id>  (40) 
4KCQ_1QF_B_503

>  <ChainId>  (40) 
B

>  <AsymId>  (40) 
L

>  <SeqNum>  (40) 
503

>  <Name>  (40) 
N-(4-{2-[ethyl(3-{[(E)-imino(thiophen-2-yl)methyl]amino}benzyl)amino]ethyl}phenyl)thiophene-2-carboximidamide

>  <SystematicName>  (40) 
N-[4-[2-[ethyl-[[3-[(C-thiophen-2-ylcarbonimidoyl)amino]phenyl]methyl]amino]ethyl]phenyl]thiophene-2-carboximidamide

>  <Synonyms>  (40) 


>  <Type>  (40) 
NON-POLYMER

>  <Formula>  (40) 
C27 H29 N5 S2

>  <ObservedFormula>  (40) 
C27 S2 N5

>  <MolecularWeight>  (40) 
487.683

>  <ModifiedDate>  (40) 
2014-02-07

>  <Parent>  (40) 


>  <OneLetterCode>  (40) 


>  <SubcomponentList>  (40) 


>  <AmbiguousFlag>  (40) 
N

>  <InsertionCode>  (40) 


>  <InstanceId>  (40) 
4KCQ_1QF_B_503

>  <ChemCompId>  (40) 
1QF

>  <PdbId>  (40) 
4KCQ

>  <ResidueNumber>  (40) 
503

>  <InChI>  (40) 
InChI=1S/C27H29N5S2/c1-2-32(19-21-6-3-7-23(18-21)31-27(29)25-9-5-17-34-25)15-14-20-10-12-22(13-11-20)30-26(28)24-8-4-16-33-24/h3-13,16-18H,2,14-15,19H2,1H3,(H2,28,30)(H2,29,31)

>  <InChIKey>  (40) 
ZAOJVZLLICOZMJ-UHFFFAOYSA-N

>  <SMILES>  (40) 
[H]/N=C(\c1cccs1)/Nc2ccc(cc2)CCN(CC)Cc3cccc(c3)N/C(=N/[H])/c4cccs4

>  <MissingHeavyAtoms>  (40) 
0

>  <Model>  (40) 
1

>  <AltIds>  (40) 


>  <pKI>  (40) 
4.38

>  <ChemblID>  (40) 
CHEMBL3128247

>  <standardized_canonical_smiles>  (40) 
CCN(CCc1ccc(NC(=N)c2cccs2)cc1)Cc1cccc(NC(=N)c2cccs2)c1

$$$$
4KCP_H44_B_503
     RDKit          3D

 32 35  0  0  0  0  0  0  0  0999 V2000
   -1.1270   -5.2340   62.1040 N   0  0  0  0  0  0  0  0  0  0  0  0
    0.1220   -5.3640   61.9980 C   0  0  0  0  0  0  0  0  0  0  0  0
    0.7270   -6.7210   62.2960 C   0  0  0  0  0  0  0  0  0  0  0  0
    0.6660   -7.9460   61.0590 S   0  0  0  0  0  0  0  0  0  0  0  0
    1.4780   -9.1220   62.0310 C   0  0  0  0  0  0  0  0  0  0  0  0
    1.7860   -8.5840   63.2810 C   0  0  0  0  0  0  0  0  0  0  0  0
    1.3670   -7.2460   63.4350 C   0  0  0  0  0  0  0  0  0  0  0  0
    0.9260   -4.3130   61.7090 N   0  0  0  0  0  0  0  0  0  0  0  0
    0.6300   -2.9700   61.7460 C   0  0  0  0  0  0  0  0  0  0  0  0
   -0.6660   -2.4290   61.8440 C   0  0  0  0  0  0  0  0  0  0  0  0
   -0.8590   -1.0420   61.9280 C   0  0  0  0  0  0  0  0  0  0  0  0
    0.2250   -0.1560   61.9180 C   0  0  0  0  0  0  0  0  0  0  0  0
    1.5150   -0.6870   61.8280 C   0  0  0  0  0  0  0  0  0  0  0  0
    1.7140   -2.0720   61.7520 C   0  0  0  0  0  0  0  0  0  0  0  0
   -0.0100    1.3530   62.0310 C   0  0  0  0  0  0  0  0  0  0  0  0
    0.2750    1.8200   63.4830 C   0  0  0  0  0  0  0  0  0  0  0  0
   -0.0670    3.1970   63.7480 N   0  0  0  0  0  0  0  0  0  0  0  0
   -0.9810    3.7040   64.7920 C   0  0  0  0  0  0  0  0  0  0  0  0
   -0.4140    4.9820   65.3390 C   0  0  0  0  0  0  0  0  0  0  0  0
    0.8830    4.8560   65.7610 C   0  0  0  0  0  0  0  0  0  0  0  0
    1.5650    5.9580   66.2200 C   0  0  0  0  0  0  0  0  0  0  0  0
    0.9570    7.2110   66.2670 C   0  0  0  0  0  0  0  0  0  0  0  0
   -0.3520    7.3660   65.8460 C   0  0  0  0  0  0  0  0  0  0  0  0
   -1.0440    6.2250   65.3870 C   0  0  0  0  0  0  0  0  0  0  0  0
   -0.9830    8.5740   66.0020 N   0  0  0  0  0  0  0  0  0  0  0  0
   -0.6910    9.5090   66.8960 C   0  0  0  0  0  0  0  0  0  0  0  0
   -0.8040   10.8010   66.6920 N   0  0  0  0  0  0  0  0  0  0  0  0
   -0.1210    9.1240   68.2090 C   0  0  0  0  0  0  0  0  0  0  0  0
    0.9070   10.2950   68.9730 S   0  0  0  0  0  0  0  0  0  0  0  0
    1.0810    9.2530   70.2920 C   0  0  0  0  0  0  0  0  0  0  0  0
    0.3920    8.0650   70.0730 C   0  0  0  0  0  0  0  0  0  0  0  0
   -0.3070    7.9620   68.9070 C   0  0  0  0  0  0  0  0  0  0  0  0
  2  1  2  0
  3  2  1  0
  8  2  1  0
  4  3  1  0
  7  3  2  0
  5  4  1  0
  6  5  2  0
  7  6  1  0
  9  8  1  0
 10  9  2  0
 14  9  1  0
 11 10  1  0
 12 11  2  0
 13 12  1  0
 15 12  1  0
 14 13  2  0
 16 15  1  0
 17 16  1  0
 18 17  1  0
 19 18  1  0
 20 19  2  0
 24 19  1  0
 21 20  1  0
 22 21  2  0
 23 22  1  0
 24 23  2  0
 25 23  1  0
 26 25  1  0
 27 26  2  0
 28 26  1  0
 29 28  1  0
 32 28  2  0
 30 29  1  0
 31 30  2  0
 32 31  1  0
A    1
N26
A    2
C26
A    3
C25
A    4
S21
A    5
C22
A    6
C23
A    7
C24
A    8
N27
A    9
C31
A   10
C36
A   11
C35
A   12
C34
A   13
C33
A   14
C32
A   15
C37
A   16
C38
A   17
N18
A   18
C17
A   19
C15
A   20
C14
A   21
C13
A   22
C12
A   23
C11
A   24
C16
A   25
N07
A   26
C06
A   27
N06
A   28
C05
A   29
S01
A   30
C02
A   31
C03
A   32
C04
M  END
>  <Id>  (41) 
4KCP_H44_B_503

>  <ChainId>  (41) 
B

>  <AsymId>  (41) 
L

>  <SeqNum>  (41) 
503

>  <Name>  (41) 
N-(4-{2-[(3-{[(E)-imino(thiophen-2-yl)methyl]amino}benzyl)amino]ethyl}phenyl)thiophene-2-carboximidamide

>  <SystematicName>  (41) 
N-[4-[2-[[3-[(C-thiophen-2-ylcarbonimidoyl)amino]phenyl]methylamino]ethyl]phenyl]thiophene-2-carboximidamide

>  <Synonyms>  (41) 


>  <Type>  (41) 
NON-POLYMER

>  <Formula>  (41) 
C25 H25 N5 S2

>  <ObservedFormula>  (41) 
C25 S2 N5

>  <MolecularWeight>  (41) 
459.63

>  <ModifiedDate>  (41) 
2014-02-07

>  <Parent>  (41) 


>  <OneLetterCode>  (41) 


>  <SubcomponentList>  (41) 


>  <AmbiguousFlag>  (41) 
N

>  <InsertionCode>  (41) 


>  <InstanceId>  (41) 
4KCP_H44_B_503

>  <ChemCompId>  (41) 
H44

>  <PdbId>  (41) 
4KCP

>  <ResidueNumber>  (41) 
503

>  <InChI>  (41) 
InChI=1S/C25H25N5S2/c26-24(22-6-2-14-31-22)29-20-10-8-18(9-11-20)12-13-28-17-19-4-1-5-21(16-19)30-25(27)23-7-3-15-32-23/h1-11,14-16,28H,12-13,17H2,(H2,26,29)(H2,27,30)

>  <InChIKey>  (41) 
RWYJTZOFPFOVAE-UHFFFAOYSA-N

>  <SMILES>  (41) 
[H]/N=C(/c1cccs1)\Nc2ccc(cc2)CCNCc3cccc(c3)N/C(=N/[H])/c4cccs4

>  <MissingHeavyAtoms>  (41) 
0

>  <Model>  (41) 
1

>  <AltIds>  (41) 


>  <pKI>  (41) 
5.57

>  <ChemblID>  (41) 
CHEMBL3128246

>  <standardized_canonical_smiles>  (41) 
N=C(Nc1ccc(CCNCc2cccc(NC(=N)c3cccs3)c2)cc1)c1cccs1

$$$$
4CFT_M48_B_801
     RDKit          3D

 23 25  0  0  0  0  0  0  0  0999 V2000
   -1.7720   -2.7050   60.7770 F   0  0  0  0  0  0  0  0  0  0  0  0
    1.5740   -1.4940   61.5880 C   0  0  0  0  0  0  0  0  0  0  0  0
    0.5330   -2.3610   61.2540 C   0  0  0  0  0  0  0  0  0  0  0  0
   -0.7650   -1.8670   61.0990 C   0  0  0  0  0  0  0  0  0  0  0  0
   -1.0150   -0.5010   61.2780 C   0  0  0  0  0  0  0  0  0  0  0  0
    1.3260   -0.1340   61.7610 C   0  0  0  0  0  0  0  0  0  0  0  0
    0.0310    0.3700   61.6130 C   0  0  0  0  0  0  0  0  0  0  0  0
   -0.2160    1.8540   61.8130 C   0  0  0  0  0  0  0  0  0  0  0  0
   -1.2620    2.1320   62.8910 C   0  0  0  0  0  0  0  0  0  0  0  0
   -0.6820    2.5970   64.1400 N   0  0  0  0  0  0  0  0  0  0  0  0
   -0.7510    4.0000   64.5330 C   0  0  0  0  0  0  0  0  0  0  0  0
    0.6630    4.5230   64.7040 C   0  0  0  0  0  0  0  0  0  0  0  0
    0.7970    5.7280   65.6010 C   0  0  0  0  0  0  0  0  0  0  0  0
    1.7180    5.6820   66.6400 C   0  0  0  0  0  0  0  0  0  0  0  0
    1.8870    6.7760   67.4850 C   0  0  0  0  0  0  0  0  0  0  0  0
    0.0410    6.8950   65.3930 C   0  0  0  0  0  0  0  0  0  0  0  0
    0.2170    7.9970   66.2240 C   0  0  0  0  0  0  0  0  0  0  0  0
   -0.5150    9.1230   66.0200 N   0  0  0  0  0  0  0  0  0  0  0  0
    1.1360    7.9360   67.2800 C   0  0  0  0  0  0  0  0  0  0  0  0
    1.3020    9.0460   68.1180 C   0  0  0  0  0  0  0  0  0  0  0  0
    0.5220   10.1860   67.9000 C   0  0  0  0  0  0  0  0  0  0  0  0
   -0.3710   10.2100   66.8140 C   0  0  0  0  0  0  0  0  0  0  0  0
   -1.1120   11.3100   66.5460 N   0  0  0  0  0  0  0  0  0  0  0  0
  4  1  1  0
  3  2  2  0
  6  2  1  0
  4  3  1  0
  5  4  2  0
  7  5  1  0
  7  6  2  0
  8  7  1  0
  9  8  1  0
 10  9  1  0
 11 10  1  0
 12 11  1  0
 13 12  1  0
 14 13  2  0
 16 13  1  0
 15 14  1  0
 19 15  2  0
 17 16  2  0
 18 17  1  0
 19 17  1  0
 22 18  2  0
 20 19  1  0
 21 20  2  0
 22 21  1  0
 23 22  1  0
A    1
F23
A    2
C25
A    3
C24
A    4
C23
A    5
C22
A    6
C26
A    7
C21
A    8
C15
A    9
C14
A   10
N13
A   11
C12
A   12
C11
A   13
C08
A   14
C07
A   15
C06
A   16
C09
A   17
C10
A   18
N01
A   19
C05
A   20
C04
A   21
C03
A   22
C02
A   23
N02
M  END
>  <Id>  (42) 
4CFT_M48_B_801

>  <ChainId>  (42) 
B

>  <AsymId>  (42) 
L

>  <SeqNum>  (42) 
801

>  <Name>  (42) 
7-[2-[2-(3-fluorophenyl)ethylamino]ethyl]quinolin-2-amine

>  <SystematicName>  (42) 
7-[2-[2-(3-fluorophenyl)ethylamino]ethyl]quinolin-2-amine

>  <Synonyms>  (42) 


>  <Type>  (42) 
non-polymer

>  <Formula>  (42) 
C19 H20 F N3

>  <ObservedFormula>  (42) 
C19 F N3

>  <MolecularWeight>  (42) 
309.381

>  <ModifiedDate>  (42) 
2014-09-05

>  <Parent>  (42) 


>  <OneLetterCode>  (42) 


>  <SubcomponentList>  (42) 


>  <AmbiguousFlag>  (42) 
N

>  <InsertionCode>  (42) 


>  <InstanceId>  (42) 
4CFT_M48_B_801

>  <ChemCompId>  (42) 
M48

>  <PdbId>  (42) 
4CFT

>  <ResidueNumber>  (42) 
801

>  <InChI>  (42) 
InChI=1S/C19H20FN3/c20-17-3-1-2-14(12-17)8-10-22-11-9-15-4-5-16-6-7-19(21)23-18(16)13-15/h1-7,12-13,22H,8-11H2,(H2,21,23)

>  <InChIKey>  (42) 
UAVGQDSBRIPETE-UHFFFAOYSA-N

>  <SMILES>  (42) 
c1cc(cc(c1)F)CCNCCc2ccc3ccc(nc3c2)N

>  <MissingHeavyAtoms>  (42) 
0

>  <Model>  (42) 
1

>  <AltIds>  (42) 


>  <pKI>  (42) 
4.95

>  <ChemblID>  (42) 
CHEMBL3217277

>  <standardized_canonical_smiles>  (42) 
Nc1ccc2ccc(CCNCCc3cccc(F)c3)cc2n1

$$$$
4CAR_M87_B_800
     RDKit          3D

 22 24  0  0  0  0  0  0  0  0999 V2000
    1.8170   -2.5640   61.1060 F   0  0  0  0  0  0  0  0  0  0  0  0
    0.8010   -1.7190   61.1470 C   0  0  0  0  0  0  0  0  0  0  0  0
   -0.5120   -2.1270   60.9110 C   0  0  0  0  0  0  0  0  0  0  0  0
   -1.5370   -1.1780   60.9740 C   0  0  0  0  0  0  0  0  0  0  0  0
   -1.2100    0.1620   61.2660 C   0  0  0  0  0  0  0  0  0  0  0  0
    1.1340   -0.4230   61.4470 C   0  0  0  0  0  0  0  0  0  0  0  0
    0.1340    0.5320   61.4980 C   0  0  0  0  0  0  0  0  0  0  0  0
    0.5180    1.9540   61.8710 C   0  0  0  0  0  0  0  0  0  0  0  0
   -0.0770    2.2320   63.2450 C   0  0  0  0  0  0  0  0  0  0  0  0
    0.3610    3.5600   63.6560 N   0  0  0  0  0  0  0  0  0  0  0  0
   -0.4230    4.1860   64.6470 C   0  0  0  0  0  0  0  0  0  0  0  0
    0.2170    5.2760   65.4440 C   0  0  0  0  0  0  0  0  0  0  0  0
    1.3850    5.1250   66.2110 C   0  0  0  0  0  0  0  0  0  0  0  0
    1.8560    6.1720   66.9880 C   0  0  0  0  0  0  0  0  0  0  0  0
   -0.4040    6.4880   65.4010 C   0  0  0  0  0  0  0  0  0  0  0  0
    0.1400    7.5710   66.0690 C   0  0  0  0  0  0  0  0  0  0  0  0
   -0.4920    8.7600   65.8990 N   0  0  0  0  0  0  0  0  0  0  0  0
    1.2350    7.4230   66.9290 C   0  0  0  0  0  0  0  0  0  0  0  0
    1.7220    8.5280   67.6720 C   0  0  0  0  0  0  0  0  0  0  0  0
    1.0450    9.7280   67.5460 C   0  0  0  0  0  0  0  0  0  0  0  0
   -0.0800    9.8180   66.6660 C   0  0  0  0  0  0  0  0  0  0  0  0
   -0.7290   11.0000   66.5210 N   0  0  0  0  0  0  0  0  0  0  0  0
  2  1  1  0
  3  2  2  0
  6  2  1  0
  4  3  1  0
  5  4  2  0
  7  5  1  0
  7  6  2  0
  8  7  1  0
  9  8  1  0
 10  9  1  0
 11 10  1  0
 12 11  1  0
 13 12  2  0
 15 12  1  0
 14 13  1  0
 18 14  2  0
 16 15  2  0
 17 16  1  0
 18 16  1  0
 21 17  2  0
 19 18  1  0
 20 19  2  0
 21 20  1  0
 22 21  1  0
A    1
F23
A    2
C23
A    3
C24
A    4
C25
A    5
C26
A    6
C22
A    7
C21
A    8
C14
A    9
C13
A   10
N12
A   11
C11
A   12
C08
A   13
C07
A   14
C06
A   15
C09
A   16
C10
A   17
N01
A   18
C05
A   19
C04
A   20
C03
A   21
C02
A   22
N02
M  END
>  <Id>  (43) 
4CAR_M87_B_800

>  <ChainId>  (43) 
B

>  <AsymId>  (43) 
L

>  <SeqNum>  (43) 
800

>  <Name>  (43) 
7-[[2-(3-fluorophenyl)ethylamino]methyl]quinolin-2-amine

>  <SystematicName>  (43) 
7-[[2-(3-fluorophenyl)ethylamino]methyl]quinolin-2-amine

>  <Synonyms>  (43) 


>  <Type>  (43) 
non-polymer

>  <Formula>  (43) 
C18 H18 F N3

>  <ObservedFormula>  (43) 
C18 F N3

>  <MolecularWeight>  (43) 
295.354

>  <ModifiedDate>  (43) 
2014-04-28

>  <Parent>  (43) 


>  <OneLetterCode>  (43) 


>  <SubcomponentList>  (43) 


>  <AmbiguousFlag>  (43) 
N

>  <InsertionCode>  (43) 


>  <InstanceId>  (43) 
4CAR_M87_B_800

>  <ChemCompId>  (43) 
M87

>  <PdbId>  (43) 
4CAR

>  <ResidueNumber>  (43) 
800

>  <InChI>  (43) 
InChI=1S/C18H18FN3/c19-16-3-1-2-13(10-16)8-9-21-12-14-4-5-15-6-7-18(20)22-17(15)11-14/h1-7,10-11,21H,8-9,12H2,(H2,20,22)

>  <InChIKey>  (43) 
YXSBPQQVHVXHJN-UHFFFAOYSA-N

>  <SMILES>  (43) 
c1cc(cc(c1)F)CCNCc2ccc3ccc(nc3c2)N

>  <MissingHeavyAtoms>  (43) 
0

>  <Model>  (43) 
1

>  <AltIds>  (43) 


>  <pKI>  (43) 
6.31

>  <ChemblID>  (43) 
CHEMBL3216616

>  <standardized_canonical_smiles>  (43) 
Nc1ccc2ccc(CNCCc3cccc(F)c3)cc2n1

$$$$
3JWX_JI5_B_800
     RDKit          3D

 27 29  0  0  0  0  0  0  0  0999 V2000
   -2.4840    3.9990   64.4370 C   0  0  0  0  0  0  0  0  0  0  0  0
   -1.5320    3.1680   63.7440 N   0  0  0  0  0  0  0  0  0  0  0  0
   -1.9540    5.4180   64.5100 C   0  0  0  0  0  0  0  0  0  0  0  0
   -1.0080    5.6230   65.5720 N   0  0  0  0  0  0  0  0  0  0  0  0
   -0.9880    6.9210   66.2030 C   0  0  0  0  0  0  0  0  0  0  0  0
    0.4110    7.5150   66.1200 C   0  0  0  0  0  0  0  0  0  0  0  0
   -0.4870    3.4890   60.9690 N   0  0  0  0  0  0  0  0  0  0  0  0
    0.5080    8.6810   67.0590 C   0  0  0  0  0  0  0  0  0  0  0  0
    2.3320    0.1610   63.2160 N   0  0  0  0  0  0  0  0  0  0  0  0
    1.0460    8.4970   68.3290 C   0  0  0  0  0  0  0  0  0  0  0  0
    1.1360    9.5790   69.1890 C   0  0  0  0  0  0  0  0  0  0  0  0
    1.6520    9.4040   70.4180 F   0  0  0  0  0  0  0  0  0  0  0  0
    0.6910   10.8380   68.7880 C   0  0  0  0  0  0  0  0  0  0  0  0
    0.1590   11.0160   67.5080 C   0  0  0  0  0  0  0  0  0  0  0  0
    0.0620    9.9270   66.6560 C   0  0  0  0  0  0  0  0  0  0  0  0
   -1.8860    3.3980   61.3500 C   0  0  0  0  0  0  0  0  0  0  0  0
    1.0190   -0.1610   62.9920 C   0  0  0  0  0  0  0  0  0  0  0  0
   -1.8430    2.4250   62.5240 C   0  0  0  0  0  0  0  0  0  0  0  0
    0.6780   -1.3430   62.3350 C   0  0  0  0  0  0  0  0  0  0  0  0
   -0.6720    1.5000   62.2030 C   0  0  0  0  0  0  0  0  0  0  0  0
    1.7080   -2.1890   61.9320 C   0  0  0  0  0  0  0  0  0  0  0  0
    0.3350    2.3930   61.4740 C   0  0  0  0  0  0  0  0  0  0  0  0
    3.0500   -1.8490   62.1810 C   0  0  0  0  0  0  0  0  0  0  0  0
    3.3520   -0.6480   62.8370 C   0  0  0  0  0  0  0  0  0  0  0  0
    4.6480   -0.2810   63.1070 N   0  0  0  0  0  0  0  0  0  0  0  0
   -0.0690    0.7970   63.4300 C   0  0  0  0  0  0  0  0  0  0  0  0
    1.3570   -3.4740   61.2270 C   0  0  0  0  0  0  0  0  0  0  0  0
  2  1  1  0
  3  1  1  0
 18  2  1  0
  4  3  1  0
  5  4  1  0
  6  5  1  0
  8  6  1  0
 16  7  1  0
 22  7  1  0
 10  8  2  0
 15  8  1  0
 17  9  2  0
 24  9  1  0
 11 10  1  0
 12 11  1  0
 13 11  2  0
 14 13  1  0
 15 14  2  0
 18 16  1  0
 19 17  1  0
 26 17  1  0
 20 18  1  0
 21 19  2  0
 22 20  1  0
 26 20  1  0
 23 21  1  0
 27 21  1  0
 24 23  2  0
 25 24  1  0
A    1
C1
A    2
N1
A    3
C2
A    4
N2
A    5
C3
A    6
C4
A    7
N1'
A    8
C11
A    9
N11
A   10
C12
A   11
C13
A   12
F13
A   13
C14
A   14
C15
A   15
C16
A   16
C2'
A   17
C21
A   18
C3'
A   19
C31
A   20
C4'
A   21
C41
A   22
C5'
A   23
C51
A   24
C61
A   25
N61
A   26
C71
A   27
C81
M  END
>  <Id>  (44) 
3JWX_JI5_B_800

>  <ChainId>  (44) 
B

>  <AsymId>  (44) 
N

>  <SeqNum>  (44) 
800

>  <Name>  (44) 
N-{(3R,4R)-4-[(6-amino-4-methylpyridin-2-yl)methyl]pyrrolidin-3-yl}-N'-[2-(3-fluorophenyl)ethyl]ethane-1,2-diamine

>  <SystematicName>  (44) 
N-[(3R,4R)-4-[(6-azanyl-4-methyl-pyridin-2-yl)methyl]pyrrolidin-3-yl]-N'-[2-(3-fluorophenyl)ethyl]ethane-1,2-diamine

>  <Synonyms>  (44) 
N1-{(3'R,4'R)-4'-[(6"-amino-4"-methylpyridin-2"-yl)methyl]pyrrolidin-3'-yl}-N2-(3'-fluorophenethyl)ethane-1,2-diamine tetrahydrochloride

>  <Type>  (44) 
NON-POLYMER

>  <Formula>  (44) 
C21 H30 F N5

>  <ObservedFormula>  (44) 
C21 F N5

>  <MolecularWeight>  (44) 
371.495

>  <ModifiedDate>  (44) 
2011-06-04

>  <Parent>  (44) 


>  <OneLetterCode>  (44) 


>  <SubcomponentList>  (44) 


>  <AmbiguousFlag>  (44) 
N

>  <InsertionCode>  (44) 


>  <InstanceId>  (44) 
3JWX_JI5_B_800

>  <ChemCompId>  (44) 
JI5

>  <PdbId>  (44) 
3JWX

>  <ResidueNumber>  (44) 
800

>  <InChI>  (44) 
InChI=1S/C21H30FN5/c1-15-9-19(27-21(23)10-15)12-17-13-25-14-20(17)26-8-7-24-6-5-16-3-2-4-18(22)11-16/h2-4,9-11,17,20,24-26H,5-8,12-14H2,1H3,(H2,23,27)/t17-,20+/m1/s1

>  <InChIKey>  (44) 
PUOKPLCASUFBAN-XLIONFOSSA-N

>  <SMILES>  (44) 
Cc1cc(nc(c1)N)C[C@@H]2CNC[C@@H]2NCCNCCc3cccc(c3)F

>  <MissingHeavyAtoms>  (44) 
0

>  <Model>  (44) 
1

>  <AltIds>  (44) 


>  <pKI>  (44) 
4.55

>  <ChemblID>  (44) 
CHEMBL1277951

>  <standardized_canonical_smiles>  (44) 
Cc1cc(N)nc(C[C@@H]2CNC[C@@H]2NCCNCCc2cccc(F)c2)c1

$$$$
4CTY_S5D_B_800
     RDKit          3D

 27 29  0  0  0  0  0  0  0  0999 V2000
   -0.2420    3.6020   64.2260 C   0  0  0  0  0  0  0  0  0  0  0  0
   -1.0350    4.4410   64.9920 C   0  0  0  0  0  0  0  0  0  0  0  0
   -2.4090    4.2000   65.1240 C   0  0  0  0  0  0  0  0  0  0  0  0
   -2.9970    3.1420   64.4390 C   0  0  0  0  0  0  0  0  0  0  0  0
   -2.2170    2.3360   63.6300 C   0  0  0  0  0  0  0  0  0  0  0  0
   -0.8470    2.5540   63.5350 C   0  0  0  0  0  0  0  0  0  0  0  0
   -0.6120    9.2010   65.8760 N   0  0  0  0  0  0  0  0  0  0  0  0
   -0.2900   10.3010   66.5510 C   0  0  0  0  0  0  0  0  0  0  0  0
   -0.6380   11.5280   66.0770 N   0  0  0  0  0  0  0  0  0  0  0  0
    0.4070   10.1590   67.7240 C   0  0  0  0  0  0  0  0  0  0  0  0
    0.6970    8.8890   68.1780 C   0  0  0  0  0  0  0  0  0  0  0  0
    0.3040    7.7670   67.4620 C   0  0  0  0  0  0  0  0  0  0  0  0
   -0.3470    7.9610   66.2700 C   0  0  0  0  0  0  0  0  0  0  0  0
    1.4090    8.7320   69.4780 C   0  0  0  0  0  0  0  0  0  0  0  0
   -0.8400    6.8840   65.3380 C   0  0  0  0  0  0  0  0  0  0  0  0
   -0.4170    5.5400   65.7710 C   0  0  0  0  0  0  0  0  0  0  0  0
    2.4250   -0.1100   62.7620 N   0  0  0  0  0  0  0  0  0  0  0  0
    3.4310   -0.8630   62.2550 C   0  0  0  0  0  0  0  0  0  0  0  0
    4.6830   -0.3800   62.3080 N   0  0  0  0  0  0  0  0  0  0  0  0
    3.1240   -2.1100   61.6860 C   0  0  0  0  0  0  0  0  0  0  0  0
    1.7770   -2.5790   61.6450 C   0  0  0  0  0  0  0  0  0  0  0  0
    0.7920   -1.7850   62.1450 C   0  0  0  0  0  0  0  0  0  0  0  0
    1.1200   -0.5620   62.7300 C   0  0  0  0  0  0  0  0  0  0  0  0
    1.3740   -3.9140   61.0580 C   0  0  0  0  0  0  0  0  0  0  0  0
   -0.0010    0.2740   63.3090 C   0  0  0  0  0  0  0  0  0  0  0  0
   -0.0240    1.6620   62.6990 C   0  0  0  0  0  0  0  0  0  0  0  0
   -0.5350    1.5690   61.3460 N   0  0  0  0  0  0  0  0  0  0  0  0
  2  1  2  0
  6  1  1  0
  3  2  1  0
 16  2  1  0
  4  3  2  0
  5  4  1  0
  6  5  2  0
 26  6  1  0
  8  7  2  0
 13  7  1  0
  9  8  1  0
 10  8  1  0
 11 10  2  0
 12 11  1  0
 14 11  1  0
 13 12  2  0
 15 13  1  0
 16 15  1  0
 18 17  2  0
 23 17  1  0
 19 18  1  0
 20 18  1  0
 21 20  2  0
 22 21  1  0
 24 21  1  0
 23 22  2  0
 25 23  1  0
 26 25  1  0
 27 26  1  0
A    1
C1
A    2
C2
A    3
C3
A    4
C4
A    5
C5
A    6
C6
A    7
N11
A    8
C12
A    9
N12
A   10
C13
A   11
C14
A   12
C15
A   13
C16
A   14
C17
A   15
C18
A   16
C19
A   17
N21
A   18
C22
A   19
N22
A   20
C23
A   21
C24
A   22
C25
A   23
C26
A   24
C27
A   25
C28
A   26
C29
A   27
N29
M  END
>  <Id>  (45) 
4CTY_S5D_B_800

>  <ChainId>  (45) 
B

>  <AsymId>  (45) 
L

>  <SeqNum>  (45) 
800

>  <Name>  (45) 
(R)-6-(2-Amino-2-(3-(2-(6-amino-4-methylpyridin-2-yl)ethyl)phenyl)ethyl)-4-methylpyridin-2-amine

>  <SystematicName>  (45) 
6-[2-[3-[(1R)-1-azanyl-2-(6-azanyl-4-methyl-pyridin-2-yl)ethyl]phenyl]ethyl]-4-methyl-pyridin-2-amine

>  <Synonyms>  (45) 


>  <Type>  (45) 
NON-POLYMER

>  <Formula>  (45) 
C22 H27 N5

>  <ObservedFormula>  (45) 
C22 N5

>  <MolecularWeight>  (45) 
361.483

>  <ModifiedDate>  (45) 
2014-05-02

>  <Parent>  (45) 


>  <OneLetterCode>  (45) 


>  <SubcomponentList>  (45) 


>  <AmbiguousFlag>  (45) 
N

>  <InsertionCode>  (45) 


>  <InstanceId>  (45) 
4CTY_S5D_B_800

>  <ChemCompId>  (45) 
S5D

>  <PdbId>  (45) 
4CTY

>  <ResidueNumber>  (45) 
800

>  <InChI>  (45) 
InChI=1S/C22H27N5/c1-14-8-18(26-21(24)10-14)7-6-16-4-3-5-17(12-16)20(23)13-19-9-15(2)11-22(25)27-19/h3-5,8-12,20H,6-7,13,23H2,1-2H3,(H2,24,26)(H2,25,27)/t20-/m1/s1

>  <InChIKey>  (45) 
HPGDXHOKQNTRIC-HXUWFJFHSA-N

>  <SMILES>  (45) 
Cc1cc(nc(c1)N)CCc2cccc(c2)[C@@H](Cc3cc(cc(n3)N)C)N

>  <MissingHeavyAtoms>  (45) 
0

>  <Model>  (45) 
1

>  <AltIds>  (45) 


>  <pKI>  (45) 
4.84

>  <ChemblID>  (45) 
CHEMBL3262018

>  <standardized_canonical_smiles>  (45) 
Cc1cc(N)nc(CCc2cccc([C@H](N)Cc3cc(C)cc(N)n3)c2)c1

$$$$
4CU1_71S_B_800
     RDKit          3D

 28 30  0  0  0  0  0  0  0  0999 V2000
   -0.8000   -1.8740   64.7180 N   0  0  0  0  0  0  0  0  0  0  0  0
   -0.3030   -1.6930   63.4760 C   0  0  0  0  0  0  0  0  0  0  0  0
   -0.1290   -2.7800   62.6120 C   0  0  0  0  0  0  0  0  0  0  0  0
    0.3870   -2.5630   61.3310 C   0  0  0  0  0  0  0  0  0  0  0  0
    0.5670   -3.7350   60.4070 C   0  0  0  0  0  0  0  0  0  0  0  0
    0.7210   -1.2670   60.9300 C   0  0  0  0  0  0  0  0  0  0  0  0
    0.0240   -0.4430   63.0770 N   0  0  0  0  0  0  0  0  0  0  0  0
    0.5250   -0.2140   61.8370 C   0  0  0  0  0  0  0  0  0  0  0  0
    0.8470    1.2060   61.4680 C   0  0  0  0  0  0  0  0  0  0  0  0
   -0.4660    1.9450   61.1550 C   0  0  0  0  0  0  0  0  0  0  0  0
   -0.9820    2.7110   62.3440 C   0  0  0  0  0  0  0  0  0  0  0  0
   -2.2370    2.3240   62.8300 C   0  0  0  0  0  0  0  0  0  0  0  0
   -1.2030    3.9010   59.5980 N   0  0  0  0  0  0  0  0  0  0  0  0
   -2.1660    3.9580   64.4960 C   0  0  0  0  0  0  0  0  0  0  0  0
   -0.2920    3.7770   62.9870 C   0  0  0  0  0  0  0  0  0  0  0  0
   -0.9100    4.4180   64.0640 C   0  0  0  0  0  0  0  0  0  0  0  0
   -0.3300    5.5460   64.8480 C   0  0  0  0  0  0  0  0  0  0  0  0
   -0.9360    6.7400   64.8560 C   0  0  0  0  0  0  0  0  0  0  0  0
   -0.4890    7.9000   65.6720 C   0  0  0  0  0  0  0  0  0  0  0  0
   -0.7430    9.1730   65.2910 N   0  0  0  0  0  0  0  0  0  0  0  0
   -0.4200   10.2470   66.0450 C   0  0  0  0  0  0  0  0  0  0  0  0
   -0.6980   11.4740   65.5530 N   0  0  0  0  0  0  0  0  0  0  0  0
    0.2120   10.1080   67.2820 C   0  0  0  0  0  0  0  0  0  0  0  0
    0.4780    8.8050   67.7040 C   0  0  0  0  0  0  0  0  0  0  0  0
    0.1130    7.7030   66.9100 C   0  0  0  0  0  0  0  0  0  0  0  0
    1.1260    8.5760   69.0410 C   0  0  0  0  0  0  0  0  0  0  0  0
   -0.2660    2.7810   59.8740 C   0  0  0  0  0  0  0  0  0  0  0  0
   -2.8030    2.9470   63.8820 N   0  0  0  0  0  0  0  0  0  0  0  0
  2  1  1  0
  3  2  2  0
  7  2  1  0
  4  3  1  0
  5  4  1  0
  6  4  2  0
  8  6  1  0
  8  7  2  0
  9  8  1  0
 10  9  1  0
 11 10  1  0
 27 10  1  0
 12 11  2  0
 15 11  1  0
 28 12  1  0
 27 13  1  0
 16 14  1  0
 28 14  2  0
 16 15  2  0
 17 16  1  0
 18 17  1  0
 19 18  1  0
 20 19  2  0
 25 19  1  0
 21 20  1  0
 22 21  1  0
 23 21  2  0
 24 23  1  0
 25 24  2  0
 26 24  1  0
A    1
N22
A    2
C22
A    3
C23
A    4
C24
A    5
C27
A    6
C25
A    7
N21
A    8
C26
A    9
C28
A   10
C29
A   11
C15
A   12
C14
A   13
N18
A   14
C12
A   15
C16
A   16
C11
A   17
C09
A   18
C08
A   19
C06
A   20
N01
A   21
C02
A   22
N02
A   23
C03
A   24
C04
A   25
C05
A   26
C07
A   27
C18
A   28
N11
M  END
>  <Id>  (46) 
4CU1_71S_B_800

>  <ChainId>  (46) 
B

>  <AsymId>  (46) 
J

>  <SeqNum>  (46) 
800

>  <Name>  (46) 
6-[(2S)-3-amino-2-{5-[2-(6-amino-4-methylpyridin-2-yl)ethyl]pyridin-3-yl}propyl]-4-methylpyridin-2-amine

>  <SystematicName>  (46) 
6-[2-[5-[(2S)-1-azanyl-3-(6-azanyl-4-methyl-pyridin-2-yl)propan-2-yl]pyridin-3-yl]ethyl]-4-methyl-pyridin-2-amine

>  <Synonyms>  (46) 


>  <Type>  (46) 
non-polymer

>  <Formula>  (46) 
C22 H28 N6

>  <ObservedFormula>  (46) 
C22 N6

>  <MolecularWeight>  (46) 
376.498

>  <ModifiedDate>  (46) 
2014-05-02

>  <Parent>  (46) 


>  <OneLetterCode>  (46) 


>  <SubcomponentList>  (46) 


>  <AmbiguousFlag>  (46) 
N

>  <InsertionCode>  (46) 


>  <InstanceId>  (46) 
4CU1_71S_B_800

>  <ChemCompId>  (46) 
71S

>  <PdbId>  (46) 
4CU1

>  <ResidueNumber>  (46) 
800

>  <InChI>  (46) 
InChI=1S/C22H28N6/c1-14-5-19(27-21(24)7-14)4-3-16-9-18(13-26-12-16)17(11-23)10-20-6-15(2)8-22(25)28-20/h5-9,12-13,17H,3-4,10-11,23H2,1-2H3,(H2,24,27)(H2,25,28)/t17-/m1/s1

>  <InChIKey>  (46) 
HKLFDCGBVFYQPQ-QGZVFWFLSA-N

>  <SMILES>  (46) 
Cc1cc(nc(c1)N)CCc2cc(cnc2)[C@H](Cc3cc(cc(n3)N)C)CN

>  <MissingHeavyAtoms>  (46) 
0

>  <Model>  (46) 
1

>  <AltIds>  (46) 


>  <pKI>  (46) 
4.71

>  <ChemblID>  (46) 
CHEMBL3262025

>  <standardized_canonical_smiles>  (46) 
Cc1cc(N)nc(CCc2cncc([C@@H](CN)Cc3cc(C)cc(N)n3)c2)c1

$$$$
4CU0_S71_B_800
     RDKit          3D

 28 30  0  0  0  0  0  0  0  0999 V2000
    4.7670   -0.2280   62.5590 N   0  0  0  0  0  0  0  0  0  0  0  0
    3.4410   -0.5810   62.3940 C   0  0  0  0  0  0  0  0  0  0  0  0
    3.0660   -1.7680   61.7420 C   0  0  0  0  0  0  0  0  0  0  0  0
    1.6950   -2.1390   61.5540 C   0  0  0  0  0  0  0  0  0  0  0  0
    1.2700   -3.4170   60.8740 C   0  0  0  0  0  0  0  0  0  0  0  0
    0.6960   -1.3020   62.0220 C   0  0  0  0  0  0  0  0  0  0  0  0
    2.4340    0.2260   62.8280 N   0  0  0  0  0  0  0  0  0  0  0  0
    1.0890   -0.1290   62.6730 C   0  0  0  0  0  0  0  0  0  0  0  0
   -0.0070    0.7390   63.1870 C   0  0  0  0  0  0  0  0  0  0  0  0
    0.0490    2.0740   62.4770 C   0  0  0  0  0  0  0  0  0  0  0  0
   -0.2700    2.0650   60.9710 C   0  0  0  0  0  0  0  0  0  0  0  0
   -0.6580    3.3880   60.4000 N   0  0  0  0  0  0  0  0  0  0  0  0
   -0.8910    2.8930   63.2680 C   0  0  0  0  0  0  0  0  0  0  0  0
   -2.2950    2.7860   63.1380 C   0  0  0  0  0  0  0  0  0  0  0  0
   -3.0820    3.5820   63.9080 N   0  0  0  0  0  0  0  0  0  0  0  0
   -2.5430    4.5000   64.7520 C   0  0  0  0  0  0  0  0  0  0  0  0
   -0.3420    3.8270   64.1280 C   0  0  0  0  0  0  0  0  0  0  0  0
   -1.1540    4.6490   64.8590 C   0  0  0  0  0  0  0  0  0  0  0  0
   -0.5270    5.6080   65.8070 C   0  0  0  0  0  0  0  0  0  0  0  0
   -0.6870    7.0000   65.3860 C   0  0  0  0  0  0  0  0  0  0  0  0
   -0.1640    7.9890   66.3920 C   0  0  0  0  0  0  0  0  0  0  0  0
    0.5650    7.7390   67.5690 C   0  0  0  0  0  0  0  0  0  0  0  0
    0.9820    8.8160   68.3600 C   0  0  0  0  0  0  0  0  0  0  0  0
    1.7000    8.6130   69.6440 C   0  0  0  0  0  0  0  0  0  0  0  0
   -0.4630    9.2160   66.0460 N   0  0  0  0  0  0  0  0  0  0  0  0
   -0.1620   10.2470   66.8240 C   0  0  0  0  0  0  0  0  0  0  0  0
   -0.5240   11.4530   66.3830 N   0  0  0  0  0  0  0  0  0  0  0  0
    0.5970   10.0910   68.0100 C   0  0  0  0  0  0  0  0  0  0  0  0
  2  1  1  0
  3  2  2  0
  7  2  1  0
  4  3  1  0
  5  4  1  0
  6  4  2  0
  8  6  1  0
  8  7  2  0
  9  8  1  0
 10  9  1  0
 11 10  1  0
 13 10  1  0
 12 11  1  0
 14 13  2  0
 17 13  1  0
 15 14  1  0
 16 15  2  0
 18 16  1  0
 18 17  2  0
 19 18  1  0
 20 19  1  0
 21 20  1  0
 22 21  2  0
 25 21  1  0
 23 22  1  0
 24 23  1  0
 28 23  2  0
 26 25  2  0
 27 26  1  0
 28 26  1  0
A    1
N22
A    2
C22
A    3
C23
A    4
C24
A    5
C27
A    6
C25
A    7
N21
A    8
C26
A    9
C20
A   10
C17
A   11
C18
A   12
N19
A   13
C15
A   14
C16
A   15
N11
A   16
C12
A   17
C14
A   18
C13
A   19
C09
A   20
C08
A   21
C06
A   22
C05
A   23
C04
A   24
C07
A   25
N01
A   26
C02
A   27
N02
A   28
C03
M  END
>  <Id>  (47) 
4CU0_S71_B_800

>  <ChainId>  (47) 
B

>  <AsymId>  (47) 
J

>  <SeqNum>  (47) 
800

>  <Name>  (47) 
(R)-6-(3-amino-2-(5-(2-(6-amino-4-methylpyridin-2-yl)ethyl)pyridin-3-yl)propyl)-4-methylpyridin-2-amine

>  <SystematicName>  (47) 
6-[2-[5-[(2R)-1-azanyl-3-(6-azanyl-4-methyl-pyridin-2-yl)propan-2-yl]pyridin-3-yl]ethyl]-4-methyl-pyridin-2-amine

>  <Synonyms>  (47) 


>  <Type>  (47) 
non-polymer

>  <Formula>  (47) 
C22 H28 N6

>  <ObservedFormula>  (47) 
C22 N6

>  <MolecularWeight>  (47) 
376.498

>  <ModifiedDate>  (47) 
2014-05-02

>  <Parent>  (47) 


>  <OneLetterCode>  (47) 


>  <SubcomponentList>  (47) 


>  <AmbiguousFlag>  (47) 
N

>  <InsertionCode>  (47) 


>  <InstanceId>  (47) 
4CU0_S71_B_800

>  <ChemCompId>  (47) 
S71

>  <PdbId>  (47) 
4CU0

>  <ResidueNumber>  (47) 
800

>  <InChI>  (47) 
InChI=1S/C22H28N6/c1-14-5-19(27-21(24)7-14)4-3-16-9-18(13-26-12-16)17(11-23)10-20-6-15(2)8-22(25)28-20/h5-9,12-13,17H,3-4,10-11,23H2,1-2H3,(H2,24,27)(H2,25,28)/t17-/m0/s1

>  <InChIKey>  (47) 
HKLFDCGBVFYQPQ-KRWDZBQOSA-N

>  <SMILES>  (47) 
Cc1cc(nc(c1)N)CCc2cc(cnc2)[C@@H](Cc3cc(cc(n3)N)C)CN

>  <MissingHeavyAtoms>  (47) 
0

>  <Model>  (47) 
1

>  <AltIds>  (47) 


>  <pKI>  (47) 
4.16

>  <ChemblID>  (47) 
CHEMBL3262026

>  <standardized_canonical_smiles>  (47) 
Cc1cc(N)nc(CCc2cncc([C@H](CN)Cc3cc(C)cc(N)n3)c2)c1

$$$$
4UPR_7LN_B_800
     RDKit          3D

 36 39  0  0  0  0  0  0  0  0999 V2000
    0.6420   -6.5290   64.7360 N   0  0  0  0  0  0  0  0  0  0  0  0
    1.7530   -6.3260   64.0300 C   0  0  0  0  0  0  0  0  0  0  0  0
    2.6360   -7.4910   63.7080 C   0  0  0  0  0  0  0  0  0  0  0  0
    4.2120   -7.5080   64.4290 S   0  0  0  0  0  0  0  0  0  0  0  0
    4.6960   -9.0160   63.7170 C   0  0  0  0  0  0  0  0  0  0  0  0
    3.6220   -9.4630   62.9410 C   0  0  0  0  0  0  0  0  0  0  0  0
    2.4840   -8.6390   62.9280 C   0  0  0  0  0  0  0  0  0  0  0  0
    2.0790   -5.0940   63.6210 N   0  0  0  0  0  0  0  0  0  0  0  0
    1.3020   -4.3230   62.8100 C   0  0  0  0  0  0  0  0  0  0  0  0
    1.6100   -2.9650   62.6820 C   0  0  0  0  0  0  0  0  0  0  0  0
    0.2110   -4.8460   62.0980 C   0  0  0  0  0  0  0  0  0  0  0  0
   -0.5620   -4.0200   61.2780 C   0  0  0  0  0  0  0  0  0  0  0  0
   -0.2460   -2.6660   61.1550 C   0  0  0  0  0  0  0  0  0  0  0  0
    0.8440   -2.1400   61.8540 C   0  0  0  0  0  0  0  0  0  0  0  0
    1.1900   -0.6720   61.7390 C   0  0  0  0  0  0  0  0  0  0  0  0
    0.7090   -0.0350   62.9280 O   0  0  0  0  0  0  0  0  0  0  0  0
    0.0700    1.2350   62.7540 C   0  0  0  0  0  0  0  0  0  0  0  0
   -1.3670    1.0650   62.2780 C   0  0  0  0  0  0  0  0  0  0  0  0
   -1.4560    1.3320   60.8580 N   0  0  0  0  0  0  0  0  0  0  0  0
    0.0100    1.9070   64.1170 C   0  0  0  0  0  0  0  0  0  0  0  0
   -0.5180    3.2210   63.9670 O   0  0  0  0  0  0  0  0  0  0  0  0
   -1.0420    3.7640   65.1690 C   0  0  0  0  0  0  0  0  0  0  0  0
   -0.2010    4.9540   65.5930 C   0  0  0  0  0  0  0  0  0  0  0  0
    1.1550    4.7760   65.9050 C   0  0  0  0  0  0  0  0  0  0  0  0
    1.9220    5.8600   66.3370 C   0  0  0  0  0  0  0  0  0  0  0  0
    1.3270    7.1310   66.4160 C   0  0  0  0  0  0  0  0  0  0  0  0
   -0.7920    6.2100   65.6930 C   0  0  0  0  0  0  0  0  0  0  0  0
   -0.0320    7.3120   66.1060 C   0  0  0  0  0  0  0  0  0  0  0  0
   -0.6320    8.5380   66.1450 N   0  0  0  0  0  0  0  0  0  0  0  0
   -0.4370    9.4730   67.0740 C   0  0  0  0  0  0  0  0  0  0  0  0
   -0.6930   10.7470   66.7950 N   0  0  0  0  0  0  0  0  0  0  0  0
    0.0670    9.0690   68.4190 C   0  0  0  0  0  0  0  0  0  0  0  0
    1.1190   10.2140   69.1930 S   0  0  0  0  0  0  0  0  0  0  0  0
    1.3740    9.2240   70.5870 C   0  0  0  0  0  0  0  0  0  0  0  0
    0.6310    8.0370   70.3880 C   0  0  0  0  0  0  0  0  0  0  0  0
   -0.1100    7.9160   69.2030 C   0  0  0  0  0  0  0  0  0  0  0  0
  2  1  2  0
  3  2  1  0
  8  2  1  0
  4  3  1  0
  7  3  2  0
  5  4  1  0
  6  5  2  0
  7  6  1  0
  9  8  1  0
 10  9  2  0
 11  9  1  0
 14 10  1  0
 12 11  2  0
 13 12  1  0
 14 13  2  0
 15 14  1  0
 16 15  1  0
 17 16  1  0
 18 17  1  0
 20 17  1  0
 19 18  1  0
 21 20  1  0
 22 21  1  0
 23 22  1  0
 24 23  2  0
 27 23  1  0
 25 24  1  0
 26 25  2  0
 28 26  1  0
 28 27  2  0
 29 28  1  0
 30 29  2  0
 31 30  1  0
 32 30  1  0
 33 32  1  0
 36 32  2  0
 34 33  1  0
 35 34  2  0
 36 35  1  0
A    1
N26
A    2
C26
A    3
C25
A    4
S21
A    5
C22
A    6
C23
A    7
C24
A    8
N27
A    9
C31
A   10
C36
A   11
C32
A   12
C33
A   13
C34
A   14
C35
A   15
C37
A   16
O38
A   17
C20
A   18
C21
A   19
N22
A   20
C19
A   21
O18
A   22
C17
A   23
C15
A   24
C14
A   25
C13
A   26
C12
A   27
C16
A   28
C11
A   29
N07
A   30
C06
A   31
N06
A   32
C05
A   33
S01
A   34
C02
A   35
C03
A   36
C04
M  END
>  <Id>  (48) 
4UPR_7LN_B_800

>  <ChainId>  (48) 
B

>  <AsymId>  (48) 
K

>  <SeqNum>  (48) 
800

>  <Name>  (48) 
N,N''-{[(2S)-3-aminopropane-1,2-diyl]bis(oxymethanediylbenzene-3,1-diyl)}dithiophene-2-carboximidamide

>  <SystematicName>  (48) 
N'-[3-[[(2S)-3-azanyl-2-[[3-[(C-thiophen-2-ylcarbonimidoyl)amino]phenyl]methoxy]propoxy]methyl]phenyl]thiophene-2-carboximidamide

>  <Synonyms>  (48) 


>  <Type>  (48) 
non-polymer

>  <Formula>  (48) 
C27 H29 N5 O2 S2

>  <ObservedFormula>  (48) 
C27 S2 N5 O2

>  <MolecularWeight>  (48) 
519.681

>  <ModifiedDate>  (48) 
2014-08-15

>  <Parent>  (48) 


>  <OneLetterCode>  (48) 


>  <SubcomponentList>  (48) 


>  <AmbiguousFlag>  (48) 
N

>  <InsertionCode>  (48) 


>  <InstanceId>  (48) 
4UPR_7LN_B_800

>  <ChemCompId>  (48) 
7LN

>  <PdbId>  (48) 
4UPR

>  <ResidueNumber>  (48) 
800

>  <InChI>  (48) 
InChI=1S/C27H29N5O2S2/c28-15-23(34-17-20-6-2-8-22(14-20)32-27(30)25-10-4-12-36-25)18-33-16-19-5-1-7-21(13-19)31-26(29)24-9-3-11-35-24/h1-14,23H,15-18,28H2,(H2,29,31)(H2,30,32)/t23-/m0/s1

>  <InChIKey>  (48) 
KEUPBLDQGUHFOB-QHCPKHFHSA-N

>  <SMILES>  (48) 
c1cc(cc(c1)NC(=N)c2cccs2)CO[C@@H](CN)COCc3cccc(c3)/N=C(\c4cccs4)/N

>  <MissingHeavyAtoms>  (48) 
0

>  <Model>  (48) 
1

>  <AltIds>  (48) 


>  <pKI>  (48) 
4.78

>  <ChemblID>  (48) 
CHEMBL3325610

>  <standardized_canonical_smiles>  (48) 
N=C(Nc1cccc(COC[C@H](CN)OCc2cccc(NC(=N)c3cccs3)c2)c1)c1cccs1

$$$$
4UPQ_I5U_B_800
     RDKit          3D

 36 39  0  0  0  0  0  0  0  0999 V2000
   -1.2110   -5.9090   62.7610 N   0  0  0  0  0  0  0  0  0  0  0  0
   -0.8340   -5.9250   61.4810 C   0  0  0  0  0  0  0  0  0  0  0  0
   -1.1120   -7.1860   60.7110 C   0  0  0  0  0  0  0  0  0  0  0  0
    0.2070   -8.2680   60.4150 S   0  0  0  0  0  0  0  0  0  0  0  0
   -0.7310   -9.4520   59.5580 C   0  0  0  0  0  0  0  0  0  0  0  0
   -2.0440   -8.9800   59.5280 C   0  0  0  0  0  0  0  0  0  0  0  0
   -2.2660   -7.7460   60.1590 C   0  0  0  0  0  0  0  0  0  0  0  0
   -0.2500   -4.8440   60.9160 N   0  0  0  0  0  0  0  0  0  0  0  0
    0.3690   -3.8500   61.6180 C   0  0  0  0  0  0  0  0  0  0  0  0
    0.9000   -4.1440   62.8770 C   0  0  0  0  0  0  0  0  0  0  0  0
    1.5360   -3.1640   63.6280 C   0  0  0  0  0  0  0  0  0  0  0  0
    1.6480   -1.8770   63.1090 C   0  0  0  0  0  0  0  0  0  0  0  0
    0.4920   -2.5440   61.1010 C   0  0  0  0  0  0  0  0  0  0  0  0
    1.1290   -1.5440   61.8590 C   0  0  0  0  0  0  0  0  0  0  0  0
    1.3390   -0.1080   61.3880 C   0  0  0  0  0  0  0  0  0  0  0  0
    0.2180    0.7960   61.3500 O   0  0  0  0  0  0  0  0  0  0  0  0
   -0.4400    1.1310   62.5840 C   0  0  0  0  0  0  0  0  0  0  0  0
   -1.9330    0.9110   62.3600 C   0  0  0  0  0  0  0  0  0  0  0  0
   -2.2680    1.3230   61.0040 N   0  0  0  0  0  0  0  0  0  0  0  0
   -0.2520    2.5980   62.9870 C   0  0  0  0  0  0  0  0  0  0  0  0
   -0.6290    2.7480   64.3610 O   0  0  0  0  0  0  0  0  0  0  0  0
   -1.3760    3.9110   64.7270 C   0  0  0  0  0  0  0  0  0  0  0  0
   -0.4670    5.0110   65.2380 C   0  0  0  0  0  0  0  0  0  0  0  0
    0.8930    4.7820   65.5510 C   0  0  0  0  0  0  0  0  0  0  0  0
    1.6720    5.8490   66.0050 C   0  0  0  0  0  0  0  0  0  0  0  0
    1.1290    7.1410   66.1200 C   0  0  0  0  0  0  0  0  0  0  0  0
   -1.0050    6.2860   65.3810 C   0  0  0  0  0  0  0  0  0  0  0  0
   -0.2190    7.3640   65.8030 C   0  0  0  0  0  0  0  0  0  0  0  0
   -0.8040    8.5900   65.8490 N   0  0  0  0  0  0  0  0  0  0  0  0
   -0.6080    9.5190   66.7700 C   0  0  0  0  0  0  0  0  0  0  0  0
   -0.8650   10.8040   66.5080 N   0  0  0  0  0  0  0  0  0  0  0  0
   -0.1090    9.0930   68.0990 C   0  0  0  0  0  0  0  0  0  0  0  0
    0.9790   10.2160   68.8740 S   0  0  0  0  0  0  0  0  0  0  0  0
    1.1990    9.2000   70.2410 C   0  0  0  0  0  0  0  0  0  0  0  0
    0.4190    8.0400   70.0290 C   0  0  0  0  0  0  0  0  0  0  0  0
   -0.2740    7.9280   68.8330 C   0  0  0  0  0  0  0  0  0  0  0  0
  2  1  1  0
  3  2  1  0
  8  2  2  0
  4  3  1  0
  7  3  2  0
  5  4  1  0
  6  5  2  0
  7  6  1  0
  9  8  1  0
 10  9  2  0
 13  9  1  0
 11 10  1  0
 12 11  2  0
 14 12  1  0
 14 13  2  0
 15 14  1  0
 16 15  1  0
 17 16  1  0
 18 17  1  0
 20 17  1  0
 19 18  1  0
 21 20  1  0
 22 21  1  0
 23 22  1  0
 24 23  2  0
 27 23  1  0
 25 24  1  0
 26 25  2  0
 28 26  1  0
 28 27  2  0
 29 28  1  0
 30 29  1  0
 31 30  2  0
 32 30  1  0
 33 32  1  0
 36 32  2  0
 34 33  1  0
 35 34  2  0
 36 35  1  0
A    1
N26
A    2
C26
A    3
C25
A    4
S21
A    5
C22
A    6
C23
A    7
C24
A    8
N27
A    9
C31
A   10
C32
A   11
C33
A   12
C34
A   13
C36
A   14
C35
A   15
C37
A   16
O38
A   17
C20
A   18
C21
A   19
N22
A   20
C19
A   21
O18
A   22
C17
A   23
C15
A   24
C14
A   25
C13
A   26
C12
A   27
C16
A   28
C11
A   29
N07
A   30
C06
A   31
N06
A   32
C05
A   33
S01
A   34
C02
A   35
C03
A   36
C04
M  END
>  <Id>  (49) 
4UPQ_I5U_B_800

>  <ChainId>  (49) 
B

>  <AsymId>  (49) 
L

>  <SeqNum>  (49) 
800

>  <Name>  (49) 
N',N'-{[(2R)-3-aminopropane-1,2-diyl]bis(oxymethanediylbenzene-3,1-diyl)}dithiophene-2-carboximidamide

>  <SystematicName>  (49) 
N'-[3-[[(2R)-1-azanyl-3-[[3-[(C-thiophen-2-ylcarbonimidoyl)amino]phenyl]methoxy]propan-2-yl]oxymethyl]phenyl]thiophene-2-carboximidamide

>  <Synonyms>  (49) 


>  <Type>  (49) 
non-polymer

>  <Formula>  (49) 
C27 H29 N5 O2 S2

>  <ObservedFormula>  (49) 
C27 S2 N5 O2

>  <MolecularWeight>  (49) 
519.681

>  <ModifiedDate>  (49) 
2014-08-15

>  <Parent>  (49) 


>  <OneLetterCode>  (49) 


>  <SubcomponentList>  (49) 


>  <AmbiguousFlag>  (49) 
N

>  <InsertionCode>  (49) 


>  <InstanceId>  (49) 
4UPQ_I5U_B_800

>  <ChemCompId>  (49) 
I5U

>  <PdbId>  (49) 
4UPQ

>  <ResidueNumber>  (49) 
800

>  <InChI>  (49) 
InChI=1S/C27H29N5O2S2/c28-15-23(34-17-20-6-2-8-22(14-20)32-27(30)25-10-4-12-36-25)18-33-16-19-5-1-7-21(13-19)31-26(29)24-9-3-11-35-24/h1-14,23H,15-18,28H2,(H2,29,31)(H2,30,32)/t23-/m1/s1

>  <InChIKey>  (49) 
KEUPBLDQGUHFOB-HSZRJFAPSA-N

>  <SMILES>  (49) 
[H]/N=C(\c1cccs1)/Nc2cccc(c2)COC[C@@H](CN)OCc3cccc(c3)/N=C(\c4cccs4)/N

>  <MissingHeavyAtoms>  (49) 
0

>  <Model>  (49) 
1

>  <AltIds>  (49) 


>  <pKI>  (49) 
4.91

>  <ChemblID>  (49) 
CHEMBL3325609

>  <standardized_canonical_smiles>  (49) 
N=C(Nc1cccc(COC[C@@H](CN)OCc2cccc(NC(=N)c3cccs3)c2)c1)c1cccs1

$$$$
4UPS_6E5_B_800
     RDKit          3D

 38 42  0  0  0  0  0  0  0  0999 V2000
    1.1710   10.3830   69.1470 S   0  0  0  0  0  0  0  0  0  0  0  0
    1.4240    9.4040   70.5520 C   0  0  0  0  0  0  0  0  0  0  0  0
    0.6630    8.2270   70.3640 C   0  0  0  0  0  0  0  0  0  0  0  0
   -0.0410    8.1000   69.1660 C   0  0  0  0  0  0  0  0  0  0  0  0
    0.1270    9.2480   68.3700 C   0  0  0  0  0  0  0  0  0  0  0  0
   -0.3720    9.6420   67.0160 C   0  0  0  0  0  0  0  0  0  0  0  0
   -0.5610    8.7040   66.1020 N   0  0  0  0  0  0  0  0  0  0  0  0
   -0.6600   10.9060   66.6870 N   0  0  0  0  0  0  0  0  0  0  0  0
    0.0650    1.0710   61.5650 N   0  0  0  0  0  0  0  0  0  0  0  0
    0.0220    7.4770   66.0530 C   0  0  0  0  0  0  0  0  0  0  0  0
    1.3630    7.2570   66.3810 C   0  0  0  0  0  0  0  0  0  0  0  0
    1.8960    5.9710   66.2680 C   0  0  0  0  0  0  0  0  0  0  0  0
    1.1360    4.8980   65.7960 C   0  0  0  0  0  0  0  0  0  0  0  0
   -0.2100    5.1370   65.4630 C   0  0  0  0  0  0  0  0  0  0  0  0
   -0.7430    6.4080   65.6010 C   0  0  0  0  0  0  0  0  0  0  0  0
   -1.1150    4.0410   64.9530 C   0  0  0  0  0  0  0  0  0  0  0  0
   -0.3850    2.8320   64.7520 O   0  0  0  0  0  0  0  0  0  0  0  0
    0.1120    2.6190   63.4330 C   0  0  0  0  0  0  0  0  0  0  0  0
   -0.4390    1.3100   62.9000 C   0  0  0  0  0  0  0  0  0  0  0  0
    6.3180   -8.2240   64.7750 S   0  0  0  0  0  0  0  0  0  0  0  0
    7.2610   -9.6200   65.1940 C   0  0  0  0  0  0  0  0  0  0  0  0
    6.5070  -10.7320   64.8090 C   0  0  0  0  0  0  0  0  0  0  0  0
    5.2600  -10.4580   64.2200 C   0  0  0  0  0  0  0  0  0  0  0  0
    4.9700   -9.0920   64.1200 C   0  0  0  0  0  0  0  0  0  0  0  0
    3.8000   -8.3230   63.5590 C   0  0  0  0  0  0  0  0  0  0  0  0
    3.2650   -7.2410   64.1690 N   0  0  0  0  0  0  0  0  0  0  0  0
    3.2910   -8.7750   62.4100 N   0  0  0  0  0  0  0  0  0  0  0  0
    0.0390    0.1170   63.7260 C   0  0  0  0  0  0  0  0  0  0  0  0
    2.3690   -5.0210   64.0900 C   0  0  0  0  0  0  0  0  0  0  0  0
    2.4140   -6.3310   63.5910 C   0  0  0  0  0  0  0  0  0  0  0  0
    1.5660   -6.6620   62.5180 C   0  0  0  0  0  0  0  0  0  0  0  0
    0.7090   -5.7170   61.9440 C   0  0  0  0  0  0  0  0  0  0  0  0
    0.6830   -4.4180   62.4470 C   0  0  0  0  0  0  0  0  0  0  0  0
    1.5170   -4.0640   63.5180 C   0  0  0  0  0  0  0  0  0  0  0  0
    1.4880   -2.6550   64.0890 C   0  0  0  0  0  0  0  0  0  0  0  0
    1.7020   -1.6310   63.1070 O   0  0  0  0  0  0  0  0  0  0  0  0
    0.5010   -0.9470   62.7220 C   0  0  0  0  0  0  0  0  0  0  0  0
    0.7130   -0.2210   61.3960 C   0  0  0  0  0  0  0  0  0  0  0  0
  2  1  1  0
  5  1  1  0
  3  2  2  0
  4  3  1  0
  5  4  2  0
  6  5  1  0
  7  6  1  0
  8  6  2  0
 10  7  1  0
 19  9  1  0
 38  9  1  0
 11 10  2  0
 15 10  1  0
 12 11  1  0
 13 12  2  0
 14 13  1  0
 15 14  2  0
 16 14  1  0
 17 16  1  0
 18 17  1  0
 19 18  1  0
 28 19  1  0
 21 20  1  0
 24 20  1  0
 22 21  2  0
 23 22  1  0
 24 23  2  0
 25 24  1  0
 26 25  1  0
 27 25  2  0
 30 26  1  0
 37 28  1  0
 30 29  2  0
 34 29  1  0
 31 30  1  0
 32 31  2  0
 33 32  1  0
 34 33  2  0
 35 34  1  0
 36 35  1  0
 37 36  1  0
 38 37  1  0
A    1
S01
A    2
C02
A    3
C03
A    4
C04
A    5
C05
A    6
C06
A    7
N07
A    8
N08
A    9
N1'
A   10
C11
A   11
C12
A   12
C13
A   13
C14
A   14
C15
A   15
C16
A   16
C17
A   17
O18
A   18
C19
A   19
C2'
A   20
S21
A   21
C22
A   22
C23
A   23
C24
A   24
C25
A   25
C26
A   26
N27
A   27
N28
A   28
C3'
A   29
C30
A   30
C31
A   31
C32
A   32
C33
A   33
C34
A   34
C35
A   35
C37
A   36
O38
A   37
C4'
A   38
C5'
M  END
>  <Id>  (50) 
4UPS_6E5_B_800

>  <ChainId>  (50) 
B

>  <AsymId>  (50) 
L

>  <SeqNum>  (50) 
800

>  <Name>  (50) 
N-[3-({[(3S,5S)-5-{[(3-{[(Z)-imino(thiophen-2-yl)methyl]amino}benzyl)oxy]methyl}pyrrolidin-3-yl]oxy}methyl)phenyl]thiophene-2-carboximidamide

>  <SystematicName>  (50) 
N-[3-[[(2S,4S)-4-[[3-[(C-thiophen-2-ylcarbonimidoyl)amino]phenyl]methoxy]pyrrolidin-2-yl]methoxymethyl]phenyl]thiophene-2-carboximidamide

>  <Synonyms>  (50) 


>  <Type>  (50) 
NON-POLYMER

>  <Formula>  (50) 
C29 H31 N5 O2 S2

>  <ObservedFormula>  (50) 
S2 C29 N5 O2

>  <MolecularWeight>  (50) 
545.719

>  <ModifiedDate>  (50) 
2014-08-15

>  <Parent>  (50) 


>  <OneLetterCode>  (50) 


>  <SubcomponentList>  (50) 


>  <AmbiguousFlag>  (50) 
N

>  <InsertionCode>  (50) 


>  <InstanceId>  (50) 
4UPS_6E5_B_800

>  <ChemCompId>  (50) 
6E5

>  <PdbId>  (50) 
4UPS

>  <ResidueNumber>  (50) 
800

>  <InChI>  (50) 
InChI=1S/C29H31N5O2S2/c30-28(26-9-3-11-37-26)33-22-7-1-5-20(13-22)17-35-19-24-15-25(16-32-24)36-18-21-6-2-8-23(14-21)34-29(31)27-10-4-12-38-27/h1-14,24-25,32H,15-19H2,(H2,30,33)(H2,31,34)/t24-,25-/m0/s1

>  <InChIKey>  (50) 
GPVRORSBZUBDJB-DQEYMECFSA-N

>  <SMILES>  (50) 
[H]/N=C(/c1cccs1)\Nc2cccc(c2)COC[C@@H]3C[C@@H](CN3)OCc4cccc(c4)N/C(=N\[H])/c5cccs5

>  <MissingHeavyAtoms>  (50) 
0

>  <Model>  (50) 
1

>  <AltIds>  (50) 


>  <pKI>  (50) 
5.84

>  <ChemblID>  (50) 
CHEMBL3325614

>  <standardized_canonical_smiles>  (50) 
N=C(Nc1cccc(COC[C@@H]2C[C@H](OCc3cccc(NC(=N)c4cccs4)c3)CN2)c1)c1cccs1

$$$$
4UPT_PQW_B_800
     RDKit          3D

 36 40  0  0  0  0  0  0  0  0999 V2000
    1.2070   10.1180   69.3170 S   0  0  0  0  0  0  0  0  0  0  0  0
    1.4140    9.0750   70.6720 C   0  0  0  0  0  0  0  0  0  0  0  0
    0.6410    7.9230   70.4390 C   0  0  0  0  0  0  0  0  0  0  0  0
   -0.0800    7.8460   69.2650 C   0  0  0  0  0  0  0  0  0  0  0  0
    0.1020    9.0110   68.5250 C   0  0  0  0  0  0  0  0  0  0  0  0
   -0.4360    9.4380   67.1970 C   0  0  0  0  0  0  0  0  0  0  0  0
   -0.7190    8.5260   66.2900 N   0  0  0  0  0  0  0  0  0  0  0  0
   -0.6580   10.6550   66.9150 N   0  0  0  0  0  0  0  0  0  0  0  0
    0.5430    1.9560   63.3700 N   0  0  0  0  0  0  0  0  0  0  0  0
   -0.2880    7.2450   66.1980 C   0  0  0  0  0  0  0  0  0  0  0  0
   -1.2430    6.2760   65.9050 C   0  0  0  0  0  0  0  0  0  0  0  0
   -0.8670    4.9630   65.7060 C   0  0  0  0  0  0  0  0  0  0  0  0
    0.4590    4.5680   65.8010 C   0  0  0  0  0  0  0  0  0  0  0  0
    1.4420    5.5280   66.0770 C   0  0  0  0  0  0  0  0  0  0  0  0
    1.0670    6.8680   66.2650 C   0  0  0  0  0  0  0  0  0  0  0  0
    0.8150    3.2410   65.6070 O   0  0  0  0  0  0  0  0  0  0  0  0
   -0.0510    2.1060   65.7510 C   0  0  0  0  0  0  0  0  0  0  0  0
   -0.1010    1.2730   64.4690 C   0  0  0  0  0  0  0  0  0  0  0  0
   -1.2130   -9.1760   62.7980 S   0  0  0  0  0  0  0  0  0  0  0  0
   -2.1270  -10.3280   61.8600 C   0  0  0  0  0  0  0  0  0  0  0  0
   -2.6980   -9.6280   60.7820 C   0  0  0  0  0  0  0  0  0  0  0  0
   -2.4070   -8.2530   60.7270 C   0  0  0  0  0  0  0  0  0  0  0  0
   -1.5730   -7.8140   61.7720 C   0  0  0  0  0  0  0  0  0  0  0  0
   -1.0040   -6.4760   62.1730 C   0  0  0  0  0  0  0  0  0  0  0  0
    0.1970   -6.0150   61.7620 N   0  0  0  0  0  0  0  0  0  0  0  0
   -1.7530   -5.7200   62.9770 N   0  0  0  0  0  0  0  0  0  0  0  0
    0.6260   -0.0720   64.5890 C   0  0  0  0  0  0  0  0  0  0  0  0
    0.8740   -5.0460   62.4560 C   0  0  0  0  0  0  0  0  0  0  0  0
    1.7030   -5.4080   63.5320 C   0  0  0  0  0  0  0  0  0  0  0  0
    2.3940   -4.4350   64.2600 C   0  0  0  0  0  0  0  0  0  0  0  0
    2.2590   -3.0880   63.9090 C   0  0  0  0  0  0  0  0  0  0  0  0
    1.4360   -2.6910   62.8380 C   0  0  0  0  0  0  0  0  0  0  0  0
    0.7470   -3.6840   62.1150 C   0  0  0  0  0  0  0  0  0  0  0  0
    1.2870   -1.3530   62.4830 O   0  0  0  0  0  0  0  0  0  0  0  0
    1.5370   -0.2200   63.3520 C   0  0  0  0  0  0  0  0  0  0  0  0
    1.3570    1.0710   62.5560 C   0  0  0  0  0  0  0  0  0  0  0  0
  2  1  1  0
  5  1  1  0
  3  2  2  0
  4  3  1  0
  5  4  2  0
  6  5  1  0
  7  6  2  0
  8  6  1  0
 10  7  1  0
 18  9  1  0
 36  9  1  0
 11 10  2  0
 15 10  1  0
 12 11  1  0
 13 12  2  0
 14 13  1  0
 16 13  1  0
 15 14  2  0
 17 16  1  0
 18 17  1  0
 27 18  1  0
 20 19  1  0
 23 19  1  0
 21 20  2  0
 22 21  1  0
 23 22  2  0
 24 23  1  0
 25 24  1  0
 26 24  2  0
 28 25  1  0
 35 27  1  0
 29 28  2  0
 33 28  1  0
 30 29  1  0
 31 30  2  0
 32 31  1  0
 33 32  2  0
 34 32  1  0
 35 34  1  0
 36 35  1  0
A    1
S01
A    2
C02
A    3
C03
A    4
C04
A    5
C05
A    6
C06
A    7
N07
A    8
N08
A    9
N1'
A   10
C11
A   11
C12
A   12
C13
A   13
C14
A   14
C15
A   15
C16
A   16
O17
A   17
C18
A   18
C2'
A   19
S21
A   20
C22
A   21
C23
A   22
C24
A   23
C25
A   24
C26
A   25
N27
A   26
N28
A   27
C3'
A   28
C31
A   29
C32
A   30
C33
A   31
C34
A   32
C35
A   33
C36
A   34
O37
A   35
C4'
A   36
C5'
M  END
>  <Id>  (51) 
4UPT_PQW_B_800

>  <ChainId>  (51) 
B

>  <AsymId>  (51) 
L

>  <SeqNum>  (51) 
800

>  <Name>  (51) 
N'-[4-[[(2S,4R)-4-[3-[(C-thiophen-2-ylcarbonimidoyl)amino]phenoxy]pyrrolidin-2-yl]methoxy]phenyl]thiophene-2-carboximidamide

>  <SystematicName>  (51) 
N'-[4-[[(2S,4R)-4-[3-[(C-thiophen-2-ylcarbonimidoyl)amino]phenoxy]pyrrolidin-2-yl]methoxy]phenyl]thiophene-2-carboximidamide

>  <Synonyms>  (51) 


>  <Type>  (51) 
NON-POLYMER

>  <Formula>  (51) 
C27 H27 N5 O2 S2

>  <ObservedFormula>  (51) 
S2 C27 N5 O2

>  <MolecularWeight>  (51) 
517.666

>  <ModifiedDate>  (51) 
2014-08-15

>  <Parent>  (51) 


>  <OneLetterCode>  (51) 


>  <SubcomponentList>  (51) 


>  <AmbiguousFlag>  (51) 
N

>  <InsertionCode>  (51) 


>  <InstanceId>  (51) 
4UPT_PQW_B_800

>  <ChemCompId>  (51) 
PQW

>  <PdbId>  (51) 
4UPT

>  <ResidueNumber>  (51) 
800

>  <InChI>  (51) 
InChI=1S/C27H27N5O2S2/c28-26(24-6-2-12-35-24)31-18-8-10-21(11-9-18)33-17-20-15-23(16-30-20)34-22-5-1-4-19(14-22)32-27(29)25-7-3-13-36-25/h1-14,20,23,30H,15-17H2,(H2,28,31)(H2,29,32)/t20-,23+/m0/s1

>  <InChIKey>  (51) 
MVLJJSCAHWVTFO-NZQKXSOJSA-N

>  <SMILES>  (51) 
[H]/N=C(/c1cccs1)\Nc2cccc(c2)O[C@@H]3C[C@H](NC3)COc4ccc(cc4)N=C(c5cccs5)N

>  <MissingHeavyAtoms>  (51) 
0

>  <Model>  (51) 
1

>  <AltIds>  (51) 


>  <pKI>  (51) 
5.94

>  <ChemblID>  (51) 
CHEMBL3327299

>  <standardized_canonical_smiles>  (51) 
N=C(Nc1ccc(OC[C@@H]2C[C@@H](Oc3cccc(NC(=N)c4cccs4)c3)CN2)cc1)c1cccs1

$$$$
4D38_L5Z_B_800
     RDKit          3D

 25 28  0  0  0  0  0  0  0  0999 V2000
    2.2780    8.9020   67.5060 N   0  0  0  0  0  0  0  0  0  0  0  0
    1.5580    8.0780   66.7220 C   0  0  0  0  0  0  0  0  0  0  0  0
    0.4650    7.8040   67.4300 N   0  0  0  0  0  0  0  0  0  0  0  0
    0.4080    8.3950   68.6150 C   0  0  0  0  0  0  0  0  0  0  0  0
    1.6000    9.1130   68.6690 C   0  0  0  0  0  0  0  0  0  0  0  0
   -0.0070   -1.2070   61.0360 C   0  0  0  0  0  0  0  0  0  0  0  0
   -0.2260    6.1610   65.9460 N   0  0  0  0  0  0  0  0  0  0  0  0
   -0.5010    7.0110   66.9530 C   0  0  0  0  0  0  0  0  0  0  0  0
   -1.7440    7.0800   67.4760 N   0  0  0  0  0  0  0  0  0  0  0  0
   -2.7270    6.3050   66.9920 C   0  0  0  0  0  0  0  0  0  0  0  0
   -2.4680    5.4280   65.9450 C   0  0  0  0  0  0  0  0  0  0  0  0
   -1.1820    5.3670   65.4320 C   0  0  0  0  0  0  0  0  0  0  0  0
   -0.8600    4.4100   64.3120 C   0  0  0  0  0  0  0  0  0  0  0  0
    0.5130    3.8010   64.5820 C   0  0  0  0  0  0  0  0  0  0  0  0
    0.9710    2.8900   63.5100 N   0  0  0  0  0  0  0  0  0  0  0  0
   -1.0090   -2.1690   61.0060 C   0  0  0  0  0  0  0  0  0  0  0  0
   -0.1190    2.0960   62.9020 C   0  0  0  0  0  0  0  0  0  0  0  0
   -0.1570    0.7120   63.5310 C   0  0  0  0  0  0  0  0  0  0  0  0
    0.5260    0.9140   62.1870 C   0  0  0  0  0  0  0  0  0  0  0  0
   -0.3710    0.2620   61.1450 C   0  0  0  0  0  0  0  0  0  0  0  0
   -0.6860   -3.5150   60.9160 C   0  0  0  0  0  0  0  0  0  0  0  0
    0.6450   -3.9160   60.8550 C   0  0  0  0  0  0  0  0  0  0  0  0
    1.6410   -2.9500   60.8880 C   0  0  0  0  0  0  0  0  0  0  0  0
    1.3230   -1.5990   60.9840 C   0  0  0  0  0  0  0  0  0  0  0  0
   -1.6740   -4.4250   60.8920 F   0  0  0  0  0  0  0  0  0  0  0  0
  2  1  2  0
  5  1  1  0
  3  2  1  0
  4  3  1  0
  8  3  1  0
  5  4  2  0
 16  6  2  0
 20  6  1  0
 24  6  1  0
  8  7  2  0
 12  7  1  0
  9  8  1  0
 10  9  2  0
 11 10  1  0
 12 11  2  0
 13 12  1  0
 14 13  1  0
 15 14  1  0
 17 15  1  0
 21 16  1  0
 18 17  1  0
 19 17  1  0
 19 18  1  0
 20 19  1  0
 22 21  2  0
 25 21  1  0
 23 22  1  0
 24 23  2  0
A    1
N01
A    2
C02
A    3
N03
A    4
C04
A    5
C05
A    6
C1'
A    7
N11
A    8
C12
A    9
N13
A   10
C14
A   11
C15
A   12
C16
A   13
C17
A   14
C18
A   15
N19
A   16
C2'
A   17
C21
A   18
C22
A   19
C23
A   20
C24
A   21
C3'
A   22
C4'
A   23
C5'
A   24
C6'
A   25
F7'
M  END
>  <Id>  (52) 
4D38_L5Z_B_800

>  <ChainId>  (52) 
B

>  <AsymId>  (52) 
K

>  <SeqNum>  (52) 
800

>  <Name>  (52) 
(1R,2R)-2-(3-fluorobenzyl)-N-{2-[2-(1H-imidazol-1-yl)pyrimidin-4-yl]ethyl}cyclopropanamine

>  <SystematicName>  (52) 
(1R,2R)-2-[(3-fluorophenyl)methyl]-N-[2-(2-imidazol-1-ylpyrimidin-4-yl)ethyl]cyclopropan-1-amine

>  <Synonyms>  (52) 


>  <Type>  (52) 
NON-POLYMER

>  <Formula>  (52) 
C19 H20 F N5

>  <ObservedFormula>  (52) 
C19 F N5

>  <MolecularWeight>  (52) 
337.394

>  <ModifiedDate>  (52) 
2014-12-19

>  <Parent>  (52) 


>  <OneLetterCode>  (52) 


>  <SubcomponentList>  (52) 


>  <AmbiguousFlag>  (52) 
N

>  <InsertionCode>  (52) 


>  <InstanceId>  (52) 
4D38_L5Z_B_800

>  <ChemCompId>  (52) 
L5Z

>  <PdbId>  (52) 
4D38

>  <ResidueNumber>  (52) 
800

>  <InChI>  (52) 
InChI=1S/C19H20FN5/c20-16-3-1-2-14(11-16)10-15-12-18(15)22-6-4-17-5-7-23-19(24-17)25-9-8-21-13-25/h1-3,5,7-9,11,13,15,18,22H,4,6,10,12H2/t15-,18-/m1/s1

>  <InChIKey>  (52) 
CYEVFFVOLRMDHH-CRAIPNDOSA-N

>  <SMILES>  (52) 
c1cc(cc(c1)F)C[C@@H]2C[C@H]2NCCc3ccnc(n3)n4ccnc4

>  <MissingHeavyAtoms>  (52) 
0

>  <Model>  (52) 
1

>  <AltIds>  (52) 


>  <pKI>  (52) 
4.99

>  <ChemblID>  (52) 
CHEMBL3407822

>  <standardized_canonical_smiles>  (52) 
Fc1cccc(C[C@@H]2C[C@H]2NCCc2ccnc(-n3ccnc3)n2)c1

$$$$
4D3A_7F5_B_800
     RDKit          3D

 25 27  0  0  0  0  0  0  0  0999 V2000
    2.2970    8.9740   67.2350 N   0  0  0  0  0  0  0  0  0  0  0  0
    1.5560    8.2900   66.3760 C   0  0  0  0  0  0  0  0  0  0  0  0
    0.5170    7.8290   67.0520 N   0  0  0  0  0  0  0  0  0  0  0  0
    0.6040    8.2180   68.3640 C   0  0  0  0  0  0  0  0  0  0  0  0
    1.7790    8.9800   68.4770 C   0  0  0  0  0  0  0  0  0  0  0  0
   -0.3680    7.9100   69.4920 C   0  0  0  0  0  0  0  0  0  0  0  0
    0.5070   -1.0820   60.9720 C   0  0  0  0  0  0  0  0  0  0  0  0
   -1.7910    7.2750   66.8690 N   0  0  0  0  0  0  0  0  0  0  0  0
   -0.5370    7.0430   66.4860 C   0  0  0  0  0  0  0  0  0  0  0  0
   -0.2340    6.1120   65.5850 N   0  0  0  0  0  0  0  0  0  0  0  0
   -1.1830    5.3410   65.0190 C   0  0  0  0  0  0  0  0  0  0  0  0
   -2.5350    5.5450   65.3930 C   0  0  0  0  0  0  0  0  0  0  0  0
   -2.8110    6.5570   66.3540 C   0  0  0  0  0  0  0  0  0  0  0  0
   -0.8060    4.2610   64.0090 C   0  0  0  0  0  0  0  0  0  0  0  0
    0.6780    3.8970   64.1110 C   0  0  0  0  0  0  0  0  0  0  0  0
    1.0190    2.9690   63.0460 N   0  0  0  0  0  0  0  0  0  0  0  0
   -0.7390   -1.3680   60.4230 C   0  0  0  0  0  0  0  0  0  0  0  0
    0.2180    1.7670   63.1290 C   0  0  0  0  0  0  0  0  0  0  0  0
   -0.1340    1.2610   61.7230 C   0  0  0  0  0  0  0  0  0  0  0  0
    0.9580    0.3750   61.1170 C   0  0  0  0  0  0  0  0  0  0  0  0
   -1.1690   -2.6900   60.2820 C   0  0  0  0  0  0  0  0  0  0  0  0
   -0.3390   -3.7320   60.6940 C   0  0  0  0  0  0  0  0  0  0  0  0
    0.9110   -3.4480   61.2410 C   0  0  0  0  0  0  0  0  0  0  0  0
    1.3310   -2.1250   61.3820 C   0  0  0  0  0  0  0  0  0  0  0  0
   -2.3800   -2.9490   59.7510 F   0  0  0  0  0  0  0  0  0  0  0  0
  2  1  2  0
  5  1  1  0
  3  2  1  0
  4  3  1  0
  9  3  1  0
  5  4  2  0
  6  4  1  0
 17  7  2  0
 20  7  1  0
 24  7  1  0
  9  8  2  0
 13  8  1  0
 10  9  1  0
 11 10  2  0
 12 11  1  0
 14 11  1  0
 13 12  2  0
 15 14  1  0
 16 15  1  0
 18 16  1  0
 21 17  1  0
 19 18  1  0
 20 19  1  0
 22 21  2  0
 25 21  1  0
 23 22  1  0
 24 23  2  0
A    1
N01
A    2
C02
A    3
N03
A    4
C04
A    5
C05
A    6
C06
A    7
C1'
A    8
N11
A    9
C12
A   10
N13
A   11
C14
A   12
C15
A   13
C16
A   14
C17
A   15
C18
A   16
N19
A   17
C2'
A   18
C20
A   19
C21
A   20
C22
A   21
C3'
A   22
C4'
A   23
C5'
A   24
C6'
A   25
F7'
M  END
>  <Id>  (53) 
4D3A_7F5_B_800

>  <ChainId>  (53) 
B

>  <AsymId>  (53) 
L

>  <SeqNum>  (53) 
800

>  <Name>  (53) 
3-(3-fluorophenyl)-N-{2-[2-(5-methyl-1H-imidazol-1-yl)pyrimidin-4-yl]ethyl}propan-1-amine

>  <SystematicName>  (53) 
3-(3-fluorophenyl)-N-[2-[2-(5-methylimidazol-1-yl)pyrimidin-4-yl]ethyl]propan-1-amine

>  <Synonyms>  (53) 


>  <Type>  (53) 
NON-POLYMER

>  <Formula>  (53) 
C19 H22 F N5

>  <ObservedFormula>  (53) 
C19 F N5

>  <MolecularWeight>  (53) 
339.41

>  <ModifiedDate>  (53) 
2014-12-19

>  <Parent>  (53) 


>  <OneLetterCode>  (53) 


>  <SubcomponentList>  (53) 


>  <AmbiguousFlag>  (53) 
N

>  <InsertionCode>  (53) 


>  <InstanceId>  (53) 
4D3A_7F5_B_800

>  <ChemCompId>  (53) 
7F5

>  <PdbId>  (53) 
4D3A

>  <ResidueNumber>  (53) 
800

>  <InChI>  (53) 
InChI=1S/C19H22FN5/c1-15-13-22-14-25(15)19-23-11-8-18(24-19)7-10-21-9-3-5-16-4-2-6-17(20)12-16/h2,4,6,8,11-14,21H,3,5,7,9-10H2,1H3

>  <InChIKey>  (53) 
XNNXUOKGLOGLRV-UHFFFAOYSA-N

>  <SMILES>  (53) 
Cc1cncn1c2nccc(n2)CCNCCCc3cccc(c3)F

>  <MissingHeavyAtoms>  (53) 
0

>  <Model>  (53) 
1

>  <AltIds>  (53) 


>  <pKI>  (53) 
4.81

>  <ChemblID>  (53) 
CHEMBL3407821

>  <standardized_canonical_smiles>  (53) 
Cc1cncn1-c1nccc(CCNCCCc2cccc(F)c2)n1

$$$$
4D39_OLW_B_800
     RDKit          3D

 23 25  0  0  0  0  0  0  0  0999 V2000
    2.4140    9.2120   67.4670 N   0  0  0  0  0  0  0  0  0  0  0  0
    1.7220    8.3750   66.6710 C   0  0  0  0  0  0  0  0  0  0  0  0
    0.6330    8.1430   67.3900 N   0  0  0  0  0  0  0  0  0  0  0  0
    0.5740    8.7670   68.5750 C   0  0  0  0  0  0  0  0  0  0  0  0
    1.7590    9.4700   68.6280 C   0  0  0  0  0  0  0  0  0  0  0  0
    0.2240    1.0040   62.4610 C   0  0  0  0  0  0  0  0  0  0  0  0
   -1.5400    7.4250   67.5720 N   0  0  0  0  0  0  0  0  0  0  0  0
   -0.3470    7.3520   66.9470 C   0  0  0  0  0  0  0  0  0  0  0  0
   -0.1370    6.5100   65.9080 N   0  0  0  0  0  0  0  0  0  0  0  0
   -1.1600    5.7340   65.4900 C   0  0  0  0  0  0  0  0  0  0  0  0
   -2.3820    5.8020   66.1270 C   0  0  0  0  0  0  0  0  0  0  0  0
   -2.5620    6.6750   67.1860 C   0  0  0  0  0  0  0  0  0  0  0  0
   -1.0160    4.7630   64.3490 C   0  0  0  0  0  0  0  0  0  0  0  0
    0.3580    4.1380   64.4060 C   0  0  0  0  0  0  0  0  0  0  0  0
    0.5270    3.2360   63.2590 N   0  0  0  0  0  0  0  0  0  0  0  0
    0.6430   -0.1910   63.0490 C   0  0  0  0  0  0  0  0  0  0  0  0
   -0.4020    2.0900   63.3100 C   0  0  0  0  0  0  0  0  0  0  0  0
    1.2320   -1.1760   62.2590 C   0  0  0  0  0  0  0  0  0  0  0  0
    1.4260   -0.9680   60.8940 C   0  0  0  0  0  0  0  0  0  0  0  0
    1.0230    0.2190   60.3160 C   0  0  0  0  0  0  0  0  0  0  0  0
    0.4260    1.2070   61.0950 C   0  0  0  0  0  0  0  0  0  0  0  0
    1.6610   -2.3000   62.7270 C   0  0  0  0  0  0  0  0  0  0  0  0
    2.0530   -3.2480   63.2790 N   0  0  0  0  0  0  0  0  0  0  0  0
  2  1  2  0
  5  1  1  0
  3  2  1  0
  4  3  1  0
  8  3  1  0
  5  4  2  0
 16  6  2  0
 17  6  1  0
 21  6  1  0
  8  7  2  0
 12  7  1  0
  9  8  1  0
 10  9  2  0
 11 10  1  0
 13 10  1  0
 12 11  2  0
 14 13  1  0
 15 14  1  0
 17 15  1  0
 18 16  1  0
 19 18  2  0
 22 18  1  0
 20 19  1  0
 21 20  2  0
 23 22  3  0
A    1
N01
A    2
C02
A    3
N03
A    4
C04
A    5
C05
A    6
C1'
A    7
N11
A    8
C12
A    9
N13
A   10
C14
A   11
C15
A   12
C16
A   13
C17
A   14
C18
A   15
N19
A   16
C2'
A   17
C20
A   18
C3'
A   19
C4'
A   20
C5'
A   21
C6'
A   22
C7'
A   23
N8'
M  END
>  <Id>  (54) 
4D39_OLW_B_800

>  <ChainId>  (54) 
B

>  <AsymId>  (54) 
L

>  <SeqNum>  (54) 
800

>  <Name>  (54) 
3-[({2-[2-(1H-imidazol-1-yl)pyrimidin-4-yl]ethyl}amino)methyl]benzonitrile

>  <SystematicName>  (54) 
3-[[2-(2-imidazol-1-ylpyrimidin-4-yl)ethylamino]methyl]benzenecarbonitrile

>  <Synonyms>  (54) 
2-[2-(1H-imidazol-1-yl)pyrimidin-4-yl]-N-(3-cyanobenzyl)ethan-1-amine

>  <Type>  (54) 
NON-POLYMER

>  <Formula>  (54) 
C17 H16 N6

>  <ObservedFormula>  (54) 
C17 N6

>  <MolecularWeight>  (54) 
304.349

>  <ModifiedDate>  (54) 
2014-12-19

>  <Parent>  (54) 


>  <OneLetterCode>  (54) 


>  <SubcomponentList>  (54) 


>  <AmbiguousFlag>  (54) 
N

>  <InsertionCode>  (54) 


>  <InstanceId>  (54) 
4D39_OLW_B_800

>  <ChemCompId>  (54) 
OLW

>  <PdbId>  (54) 
4D39

>  <ResidueNumber>  (54) 
800

>  <InChI>  (54) 
InChI=1S/C17H16N6/c18-11-14-2-1-3-15(10-14)12-19-6-4-16-5-7-21-17(22-16)23-9-8-20-13-23/h1-3,5,7-10,13,19H,4,6,12H2

>  <InChIKey>  (54) 
ODSRQJVZWSSZFG-UHFFFAOYSA-N

>  <SMILES>  (54) 
c1cc(cc(c1)C#N)CNCCc2ccnc(n2)n3ccnc3

>  <MissingHeavyAtoms>  (54) 
0

>  <Model>  (54) 
1

>  <AltIds>  (54) 


>  <pKI>  (54) 
4.98

>  <ChemblID>  (54) 
CHEMBL3407815

>  <standardized_canonical_smiles>  (54) 
N#Cc1cccc(CNCCc2ccnc(-n3ccnc3)n2)c1

$$$$
4D37_9HL_B_800
     RDKit          3D

 25 28  0  0  0  0  0  0  0  0999 V2000
    2.6020    9.0010   67.5450 N   0  0  0  0  0  0  0  0  0  0  0  0
    1.9420    8.1480   66.7370 C   0  0  0  0  0  0  0  0  0  0  0  0
    0.8080    7.9100   67.3870 N   0  0  0  0  0  0  0  0  0  0  0  0
    0.6970    8.5440   68.5630 C   0  0  0  0  0  0  0  0  0  0  0  0
    1.8750    9.2560   68.6660 C   0  0  0  0  0  0  0  0  0  0  0  0
    0.3660   -1.3520   61.3510 C   0  0  0  0  0  0  0  0  0  0  0  0
    0.0830    6.1950   65.9310 N   0  0  0  0  0  0  0  0  0  0  0  0
   -0.1520    7.0920   66.9240 C   0  0  0  0  0  0  0  0  0  0  0  0
   -1.3660    7.1730   67.5000 N   0  0  0  0  0  0  0  0  0  0  0  0
   -2.3640    6.3930   67.0990 C   0  0  0  0  0  0  0  0  0  0  0  0
   -2.1660    5.4770   66.0880 C   0  0  0  0  0  0  0  0  0  0  0  0
   -0.9190    5.3980   65.4960 C   0  0  0  0  0  0  0  0  0  0  0  0
   -0.7160    4.3860   64.3980 C   0  0  0  0  0  0  0  0  0  0  0  0
    0.7010    3.8540   64.5050 C   0  0  0  0  0  0  0  0  0  0  0  0
    1.0070    2.9120   63.4050 N   0  0  0  0  0  0  0  0  0  0  0  0
   -0.4850   -2.4360   61.1440 C   0  0  0  0  0  0  0  0  0  0  0  0
   -0.0710    1.9520   63.1360 C   0  0  0  0  0  0  0  0  0  0  0  0
    0.6150    0.7310   62.5400 C   0  0  0  0  0  0  0  0  0  0  0  0
    0.9160    1.0140   61.0730 C   0  0  0  0  0  0  0  0  0  0  0  0
   -0.1760    0.0240   61.4480 C   0  0  0  0  0  0  0  0  0  0  0  0
    0.0390   -3.7220   61.0620 C   0  0  0  0  0  0  0  0  0  0  0  0
    1.4080   -3.9270   61.1910 C   0  0  0  0  0  0  0  0  0  0  0  0
    2.2550   -2.8470   61.3990 C   0  0  0  0  0  0  0  0  0  0  0  0
    1.7350   -1.5620   61.4750 C   0  0  0  0  0  0  0  0  0  0  0  0
   -0.7790   -4.7720   60.8650 F   0  0  0  0  0  0  0  0  0  0  0  0
  2  1  2  0
  5  1  1  0
  3  2  1  0
  4  3  1  0
  8  3  1  0
  5  4  2  0
 16  6  2  0
 20  6  1  0
 24  6  1  0
  8  7  2  0
 12  7  1  0
  9  8  1  0
 10  9  2  0
 11 10  1  0
 12 11  2  0
 13 12  1  0
 14 13  1  0
 15 14  1  0
 17 15  1  0
 21 16  1  0
 18 17  1  0
 19 18  1  0
 20 18  1  0
 20 19  1  0
 22 21  2  0
 25 21  1  0
 23 22  1  0
 24 23  2  0
A    1
N01
A    2
C02
A    3
N03
A    4
C04
A    5
C05
A    6
C1'
A    7
N11
A    8
C12
A    9
N13
A   10
C14
A   11
C15
A   12
C16
A   13
C17
A   14
C18
A   15
N19
A   16
C2'
A   17
C20
A   18
C21
A   19
C22
A   20
C23
A   21
C3'
A   22
C4'
A   23
C5'
A   24
C6'
A   25
F7'
M  END
>  <Id>  (55) 
4D37_9HL_B_800

>  <ChainId>  (55) 
B

>  <AsymId>  (55) 
K

>  <SeqNum>  (55) 
800

>  <Name>  (55) 
N-{[(1R,2R)-2-(3-fluorophenyl)cyclopropyl]methyl}-2-[2-(1H-imidazol-1-yl)pyrimidin-4-yl]ethanamine

>  <SystematicName>  (55) 
N-[[(1R,2R)-2-(3-fluorophenyl)cyclopropyl]methyl]-2-(2-imidazol-1-ylpyrimidin-4-yl)ethanamine

>  <Synonyms>  (55) 
2-(2-(1H-IMIDAZOL-1-YL)PYRIMIDIN-4-YL)-N-(2-(3-FLUOROPHENYL)CYCLOPROPYLMETHYL)ETHAN-1-AMINE

>  <Type>  (55) 
NON-POLYMER

>  <Formula>  (55) 
C19 H20 F N5

>  <ObservedFormula>  (55) 
C19 F N5

>  <MolecularWeight>  (55) 
337.394

>  <ModifiedDate>  (55) 
2014-12-19

>  <Parent>  (55) 


>  <OneLetterCode>  (55) 


>  <SubcomponentList>  (55) 


>  <AmbiguousFlag>  (55) 
N

>  <InsertionCode>  (55) 


>  <InstanceId>  (55) 
4D37_9HL_B_800

>  <ChemCompId>  (55) 
9HL

>  <PdbId>  (55) 
4D37

>  <ResidueNumber>  (55) 
800

>  <InChI>  (55) 
InChI=1S/C19H20FN5/c20-16-3-1-2-14(10-16)18-11-15(18)12-21-6-4-17-5-7-23-19(24-17)25-9-8-22-13-25/h1-3,5,7-10,13,15,18,21H,4,6,11-12H2/t15-,18-/m0/s1

>  <InChIKey>  (55) 
GLFSJKKKONEYJI-YJBOKZPZSA-N

>  <SMILES>  (55) 
c1cc(cc(c1)F)[C@@H]2C[C@H]2CNCCc3ccnc(n3)n4ccnc4

>  <MissingHeavyAtoms>  (55) 
0

>  <Model>  (55) 
1

>  <AltIds>  (55) 


>  <pKI>  (55) 
5.4

>  <ChemblID>  (55) 
CHEMBL3407812

>  <standardized_canonical_smiles>  (55) 
Fc1cccc(C2CC2CNCCc2ccnc(-n3ccnc3)n2)c1

$$$$
4D36_HLW_B_800
     RDKit          3D

 24 26  0  0  0  0  0  0  0  0999 V2000
    2.3820    9.1050   67.7510 N   0  0  0  0  0  0  0  0  0  0  0  0
    1.7460    8.2530   66.9160 C   0  0  0  0  0  0  0  0  0  0  0  0
    0.6030    8.0380   67.5600 N   0  0  0  0  0  0  0  0  0  0  0  0
    0.4770    8.6730   68.7260 C   0  0  0  0  0  0  0  0  0  0  0  0
    1.6520    9.3860   68.8590 C   0  0  0  0  0  0  0  0  0  0  0  0
    0.8040   -0.8280   61.5930 C   0  0  0  0  0  0  0  0  0  0  0  0
   -1.5810    7.2610   67.6460 N   0  0  0  0  0  0  0  0  0  0  0  0
   -0.3500    7.2300   67.0770 C   0  0  0  0  0  0  0  0  0  0  0  0
   -0.0580    6.3910   66.0560 N   0  0  0  0  0  0  0  0  0  0  0  0
   -1.0170    5.5760   65.5750 C   0  0  0  0  0  0  0  0  0  0  0  0
   -2.2800    5.5950   66.1390 C   0  0  0  0  0  0  0  0  0  0  0  0
   -2.5460    6.4610   67.1940 C   0  0  0  0  0  0  0  0  0  0  0  0
   -0.7320    4.6270   64.4390 C   0  0  0  0  0  0  0  0  0  0  0  0
    0.6920    4.1080   64.5630 C   0  0  0  0  0  0  0  0  0  0  0  0
    0.9350    3.1090   63.5030 N   0  0  0  0  0  0  0  0  0  0  0  0
   -0.4540   -1.2630   61.1770 C   0  0  0  0  0  0  0  0  0  0  0  0
   -0.0730    2.0390   63.5660 C   0  0  0  0  0  0  0  0  0  0  0  0
   -0.1920    1.3740   62.2030 C   0  0  0  0  0  0  0  0  0  0  0  0
    1.0910    0.6410   61.8280 C   0  0  0  0  0  0  0  0  0  0  0  0
   -0.6940   -2.6250   60.9630 C   0  0  0  0  0  0  0  0  0  0  0  0
    0.3270   -3.5480   61.1650 C   0  0  0  0  0  0  0  0  0  0  0  0
    1.5800   -3.1130   61.5800 C   0  0  0  0  0  0  0  0  0  0  0  0
    1.8190   -1.7570   61.7880 C   0  0  0  0  0  0  0  0  0  0  0  0
   -2.3100   -3.2110   60.4280 Cl  0  0  0  0  0  0  0  0  0  0  0  0
  2  1  2  0
  5  1  1  0
  3  2  1  0
  4  3  1  0
  8  3  1  0
  5  4  2  0
 16  6  2  0
 19  6  1  0
 23  6  1  0
  8  7  2  0
 12  7  1  0
  9  8  1  0
 10  9  2  0
 11 10  1  0
 13 10  1  0
 12 11  2  0
 14 13  1  0
 15 14  1  0
 17 15  1  0
 20 16  1  0
 18 17  1  0
 19 18  1  0
 21 20  2  0
 24 20  1  0
 22 21  1  0
 23 22  2  0
A    1
N01
A    2
C02
A    3
N03
A    4
C04
A    5
C05
A    6
C1'
A    7
N11
A    8
C12
A    9
N13
A   10
C14
A   11
C15
A   12
C16
A   13
C17
A   14
C18
A   15
N19
A   16
C2'
A   17
C20
A   18
C21
A   19
C22
A   20
C3'
A   21
C4'
A   22
C5'
A   23
C6'
A   24
CL7'
M  END
>  <Id>  (56) 
4D36_HLW_B_800

>  <ChainId>  (56) 
B

>  <AsymId>  (56) 
L

>  <SeqNum>  (56) 
800

>  <Name>  (56) 
3-(3-chlorophenyl)-N-{2-[2-(1H-imidazol-1-yl)pyrimidin-4-yl]ethyl}propan-1-amine

>  <SystematicName>  (56) 
3-(3-chlorophenyl)-N-[2-(2-imidazol-1-ylpyrimidin-4-yl)ethyl]propan-1-amine

>  <Synonyms>  (56) 
N-2-(2-(1H-IMIDAZOL-1-YL)PYRIMIDIN-4-YL)ETHYL-3-(3-CHLOROPHENYL)PROPAN-1-AMINE

>  <Type>  (56) 
NON-POLYMER

>  <Formula>  (56) 
C18 H20 Cl N5

>  <ObservedFormula>  (56) 
C18 Cl N5

>  <MolecularWeight>  (56) 
341.838

>  <ModifiedDate>  (56) 
2014-12-19

>  <Parent>  (56) 


>  <OneLetterCode>  (56) 


>  <SubcomponentList>  (56) 


>  <AmbiguousFlag>  (56) 
N

>  <InsertionCode>  (56) 


>  <InstanceId>  (56) 
4D36_HLW_B_800

>  <ChemCompId>  (56) 
HLW

>  <PdbId>  (56) 
4D36

>  <ResidueNumber>  (56) 
800

>  <InChI>  (56) 
InChI=1S/C18H20ClN5/c19-16-5-1-3-15(13-16)4-2-8-20-9-6-17-7-10-22-18(23-17)24-12-11-21-14-24/h1,3,5,7,10-14,20H,2,4,6,8-9H2

>  <InChIKey>  (56) 
VPDCBONBBAYCIG-UHFFFAOYSA-N

>  <SMILES>  (56) 
c1cc(cc(c1)Cl)CCCNCCc2ccnc(n2)n3ccnc3

>  <MissingHeavyAtoms>  (56) 
0

>  <Model>  (56) 
1

>  <AltIds>  (56) 


>  <pKI>  (56) 
5.09

>  <ChemblID>  (56) 
CHEMBL3407811

>  <standardized_canonical_smiles>  (56) 
Clc1cccc(CCCNCCc2ccnc(-n3ccnc3)n2)c1

$$$$
4D35_4E8_B_800
     RDKit          3D

 24 26  0  0  0  0  0  0  0  0999 V2000
    2.3740    9.0770   67.5470 N   0  0  0  0  0  0  0  0  0  0  0  0
    1.6340    8.2470   66.8100 C   0  0  0  0  0  0  0  0  0  0  0  0
    0.5380    7.9450   67.5070 N   0  0  0  0  0  0  0  0  0  0  0  0
    0.4980    8.5200   68.7040 C   0  0  0  0  0  0  0  0  0  0  0  0
    1.6720    9.2520   68.7400 C   0  0  0  0  0  0  0  0  0  0  0  0
    0.8550   -0.8350   61.7030 C   0  0  0  0  0  0  0  0  0  0  0  0
   -1.6480    7.1860   67.5870 N   0  0  0  0  0  0  0  0  0  0  0  0
   -0.4250    7.1150   67.0330 C   0  0  0  0  0  0  0  0  0  0  0  0
   -0.1880    6.2170   66.0280 N   0  0  0  0  0  0  0  0  0  0  0  0
   -1.1610    5.4170   65.5630 C   0  0  0  0  0  0  0  0  0  0  0  0
   -2.4120    5.5070   66.0980 C   0  0  0  0  0  0  0  0  0  0  0  0
   -2.6320    6.4120   67.1260 C   0  0  0  0  0  0  0  0  0  0  0  0
   -0.9450    4.4110   64.4850 C   0  0  0  0  0  0  0  0  0  0  0  0
    0.4150    3.7810   64.6750 C   0  0  0  0  0  0  0  0  0  0  0  0
    0.7550    2.8620   63.5590 N   0  0  0  0  0  0  0  0  0  0  0  0
    0.2680   -1.8860   60.9880 C   0  0  0  0  0  0  0  0  0  0  0  0
   -0.1690    1.7220   63.5090 C   0  0  0  0  0  0  0  0  0  0  0  0
   -0.5160    1.3280   62.0780 C   0  0  0  0  0  0  0  0  0  0  0  0
    0.6120    0.6180   61.3100 C   0  0  0  0  0  0  0  0  0  0  0  0
    0.5100   -3.2210   61.3650 C   0  0  0  0  0  0  0  0  0  0  0  0
    1.3420   -3.5170   62.4550 C   0  0  0  0  0  0  0  0  0  0  0  0
    1.9310   -2.4700   63.1680 C   0  0  0  0  0  0  0  0  0  0  0  0
    1.6900   -1.1410   62.7860 C   0  0  0  0  0  0  0  0  0  0  0  0
   -0.0670   -4.2350   60.6880 F   0  0  0  0  0  0  0  0  0  0  0  0
  2  1  2  0
  5  1  1  0
  3  2  1  0
  4  3  1  0
  8  3  1  0
  5  4  2  0
 16  6  2  0
 19  6  1  0
 23  6  1  0
  8  7  2  0
 12  7  1  0
  9  8  1  0
 10  9  2  0
 11 10  1  0
 13 10  1  0
 12 11  2  0
 14 13  1  0
 15 14  1  0
 17 15  1  0
 20 16  1  0
 18 17  1  0
 19 18  1  0
 21 20  2  0
 24 20  1  0
 22 21  1  0
 23 22  2  0
A    1
N01
A    2
C02
A    3
N03
A    4
C04
A    5
C05
A    6
C1'
A    7
N11
A    8
C12
A    9
N13
A   10
C14
A   11
C15
A   12
C16
A   13
C17
A   14
C18
A   15
N19
A   16
C2'
A   17
C20
A   18
C21
A   19
C22
A   20
C3'
A   21
C4'
A   22
C5'
A   23
C6'
A   24
F7'
M  END
>  <Id>  (57) 
4D35_4E8_B_800

>  <ChainId>  (57) 
B

>  <AsymId>  (57) 
L

>  <SeqNum>  (57) 
800

>  <Name>  (57) 
3-(3-fluorophenyl)-N-{2-[2-(1H-imidazol-1-yl)pyrimidin-4-yl]ethyl}propan-1-amine

>  <SystematicName>  (57) 
3-(3-fluorophenyl)-N-[2-(2-imidazol-1-ylpyrimidin-4-yl)ethyl]propan-1-amine

>  <Synonyms>  (57) 
N-2-(2-(1H-imidazol-1-yl)pyrimidin-4-yl)ethyl-3-(3-fluorophenyl)propan-1-amine

>  <Type>  (57) 
NON-POLYMER

>  <Formula>  (57) 
C18 H20 F N5

>  <ObservedFormula>  (57) 
C18 F N5

>  <MolecularWeight>  (57) 
325.383

>  <ModifiedDate>  (57) 
2017-01-18

>  <Parent>  (57) 


>  <OneLetterCode>  (57) 


>  <SubcomponentList>  (57) 


>  <AmbiguousFlag>  (57) 
N

>  <InsertionCode>  (57) 


>  <InstanceId>  (57) 
4D35_4E8_B_800

>  <ChemCompId>  (57) 
4E8

>  <PdbId>  (57) 
4D35

>  <ResidueNumber>  (57) 
800

>  <InChI>  (57) 
InChI=1S/C18H20FN5/c19-16-5-1-3-15(13-16)4-2-8-20-9-6-17-7-10-22-18(23-17)24-12-11-21-14-24/h1,3,5,7,10-14,20H,2,4,6,8-9H2

>  <InChIKey>  (57) 
GTABKUMYLUXCIH-UHFFFAOYSA-N

>  <SMILES>  (57) 
c1cc(cc(c1)F)CCCNCCc2ccnc(n2)n3ccnc3

>  <MissingHeavyAtoms>  (57) 
0

>  <Model>  (57) 
1

>  <AltIds>  (57) 


>  <pKI>  (57) 
5.31

>  <ChemblID>  (57) 
CHEMBL3407810

>  <standardized_canonical_smiles>  (57) 
Fc1cccc(CCCNCCc2ccnc(-n3ccnc3)n2)c1

$$$$
4D34_E2Z_B_800
     RDKit          3D

 23 25  0  0  0  0  0  0  0  0999 V2000
    2.4740    9.2230   67.5110 N   0  0  0  0  0  0  0  0  0  0  0  0
    1.7650    8.4220   66.7120 C   0  0  0  0  0  0  0  0  0  0  0  0
    0.6820    8.0900   67.4020 N   0  0  0  0  0  0  0  0  0  0  0  0
    0.6570    8.6460   68.6120 C   0  0  0  0  0  0  0  0  0  0  0  0
    1.8190    9.3840   68.6880 C   0  0  0  0  0  0  0  0  0  0  0  0
    0.3870   -0.2980   61.5190 C   0  0  0  0  0  0  0  0  0  0  0  0
   -1.4940    7.2320   67.4930 N   0  0  0  0  0  0  0  0  0  0  0  0
   -0.2800    7.2690   66.9090 C   0  0  0  0  0  0  0  0  0  0  0  0
   -0.0280    6.4630   65.8510 N   0  0  0  0  0  0  0  0  0  0  0  0
   -0.9690    5.6220   65.3600 C   0  0  0  0  0  0  0  0  0  0  0  0
   -2.2120    5.6110   65.9450 C   0  0  0  0  0  0  0  0  0  0  0  0
   -2.4580    6.4350   67.0480 C   0  0  0  0  0  0  0  0  0  0  0  0
   -0.6960    4.7300   64.1850 C   0  0  0  0  0  0  0  0  0  0  0  0
    0.4520    3.7770   64.4770 C   0  0  0  0  0  0  0  0  0  0  0  0
    0.8300    2.9710   63.2990 N   0  0  0  0  0  0  0  0  0  0  0  0
   -0.8220   -0.7710   61.0650 C   0  0  0  0  0  0  0  0  0  0  0  0
    0.0290    1.7540   63.0710 C   0  0  0  0  0  0  0  0  0  0  0  0
    0.5320    1.2000   61.7310 C   0  0  0  0  0  0  0  0  0  0  0  0
   -1.0220   -2.1350   60.8470 C   0  0  0  0  0  0  0  0  0  0  0  0
    0.0040   -3.0540   61.0500 C   0  0  0  0  0  0  0  0  0  0  0  0
    1.2400   -2.5850   61.4800 C   0  0  0  0  0  0  0  0  0  0  0  0
    1.4310   -1.2130   61.7150 C   0  0  0  0  0  0  0  0  0  0  0  0
   -2.2490   -2.5010   60.4220 F   0  0  0  0  0  0  0  0  0  0  0  0
  2  1  2  0
  5  1  1  0
  3  2  1  0
  4  3  1  0
  8  3  1  0
  5  4  2  0
 16  6  2  0
 18  6  1  0
 22  6  1  0
  8  7  2  0
 12  7  1  0
  9  8  1  0
 10  9  2  0
 11 10  1  0
 13 10  1  0
 12 11  2  0
 14 13  1  0
 15 14  1  0
 17 15  1  0
 19 16  1  0
 18 17  1  0
 20 19  2  0
 23 19  1  0
 21 20  1  0
 22 21  2  0
A    1
N01
A    2
C02
A    3
N03
A    4
C04
A    5
C05
A    6
C1'
A    7
N11
A    8
C12
A    9
N13
A   10
C14
A   11
C15
A   12
C16
A   13
C17
A   14
C18
A   15
N19
A   16
C2'
A   17
C20
A   18
C21
A   19
C3'
A   20
C4'
A   21
C5'
A   22
C6'
A   23
F7'
M  END
>  <Id>  (58) 
4D34_E2Z_B_800

>  <ChainId>  (58) 
B

>  <AsymId>  (58) 
K

>  <SeqNum>  (58) 
800

>  <Name>  (58) 
2-(3-fluorophenyl)-N-{2-[2-(1H-imidazol-1-yl)pyrimidin-4-yl]ethyl}ethanamine

>  <SystematicName>  (58) 
2-(3-fluorophenyl)-N-[2-(2-imidazol-1-ylpyrimidin-4-yl)ethyl]ethanamine

>  <Synonyms>  (58) 
2-(2-(1H-Imidazol-1-yl)pyrimidin-4-yl)-n-(3-fluorophenethyl)ethan-1-amine

>  <Type>  (58) 
NON-POLYMER

>  <Formula>  (58) 
C17 H18 F N5

>  <ObservedFormula>  (58) 
C17 F N5

>  <MolecularWeight>  (58) 
311.357

>  <ModifiedDate>  (58) 
2017-01-18

>  <Parent>  (58) 


>  <OneLetterCode>  (58) 


>  <SubcomponentList>  (58) 


>  <AmbiguousFlag>  (58) 
N

>  <InsertionCode>  (58) 


>  <InstanceId>  (58) 
4D34_E2Z_B_800

>  <ChemCompId>  (58) 
E2Z

>  <PdbId>  (58) 
4D34

>  <ResidueNumber>  (58) 
800

>  <InChI>  (58) 
InChI=1S/C17H18FN5/c18-15-3-1-2-14(12-15)4-7-19-8-5-16-6-9-21-17(22-16)23-11-10-20-13-23/h1-3,6,9-13,19H,4-5,7-8H2

>  <InChIKey>  (58) 
ZPTNPJCYGBTULC-UHFFFAOYSA-N

>  <SMILES>  (58) 
c1cc(cc(c1)F)CCNCCc2ccnc(n2)n3ccnc3

>  <MissingHeavyAtoms>  (58) 
0

>  <Model>  (58) 
1

>  <AltIds>  (58) 


>  <pKI>  (58) 
5.4

>  <ChemblID>  (58) 
CHEMBL3407809

>  <standardized_canonical_smiles>  (58) 
Fc1cccc(CCNCCc2ccnc(-n3ccnc3)n2)c1

$$$$
4D33_6J0_B_800
     RDKit          3D

 24 26  0  0  0  0  0  0  0  0999 V2000
    2.4250    9.3020   66.7910 N   0  0  0  0  0  0  0  0  0  0  0  0
    1.8280    8.4200   65.9770 C   0  0  0  0  0  0  0  0  0  0  0  0
    0.6990    8.1530   66.6290 N   0  0  0  0  0  0  0  0  0  0  0  0
    0.5410    8.7650   67.7990 C   0  0  0  0  0  0  0  0  0  0  0  0
    1.6810    9.5470   67.9040 C   0  0  0  0  0  0  0  0  0  0  0  0
    1.0670   -0.8690   61.0250 C   0  0  0  0  0  0  0  0  0  0  0  0
   -1.3390    7.0460   66.8060 N   0  0  0  0  0  0  0  0  0  0  0  0
   -0.1850    7.2880   66.1450 C   0  0  0  0  0  0  0  0  0  0  0  0
    0.1170    6.6480   65.0070 N   0  0  0  0  0  0  0  0  0  0  0  0
   -0.7570    5.7470   64.4980 C   0  0  0  0  0  0  0  0  0  0  0  0
   -1.9560    5.4860   65.1530 C   0  0  0  0  0  0  0  0  0  0  0  0
   -2.2290    6.1660   66.3310 C   0  0  0  0  0  0  0  0  0  0  0  0
   -0.4830    5.0860   63.3620 N   0  0  0  0  0  0  0  0  0  0  0  0
   -1.5870    4.3560   62.7560 C   0  0  0  0  0  0  0  0  0  0  0  0
   -1.3410    2.8640   62.8760 C   0  0  0  0  0  0  0  0  0  0  0  0
    1.6760   -1.5990   62.0340 C   0  0  0  0  0  0  0  0  0  0  0  0
   -0.1750    2.4440   62.1270 N   0  0  0  0  0  0  0  0  0  0  0  0
   -0.2070    1.0860   61.6410 C   0  0  0  0  0  0  0  0  0  0  0  0
    1.1220    0.6310   61.0790 C   0  0  0  0  0  0  0  0  0  0  0  0
    1.6300   -2.9900   62.0070 C   0  0  0  0  0  0  0  0  0  0  0  0
    0.9660   -3.6450   60.9700 C   0  0  0  0  0  0  0  0  0  0  0  0
    0.3440   -2.9090   59.9620 C   0  0  0  0  0  0  0  0  0  0  0  0
    0.3940   -1.5160   59.9970 C   0  0  0  0  0  0  0  0  0  0  0  0
    2.2310   -3.6920   62.9870 F   0  0  0  0  0  0  0  0  0  0  0  0
  2  1  2  0
  5  1  1  0
  3  2  1  0
  4  3  1  0
  8  3  1  0
  5  4  2  0
 16  6  2  0
 19  6  1  0
 23  6  1  0
  8  7  2  0
 12  7  1  0
  9  8  1  0
 10  9  2  0
 11 10  1  0
 13 10  1  0
 12 11  2  0
 14 13  1  0
 15 14  1  0
 17 15  1  0
 20 16  1  0
 18 17  1  0
 19 18  1  0
 21 20  2  0
 24 20  1  0
 22 21  1  0
 23 22  2  0
A    1
N01
A    2
C02
A    3
N03
A    4
C04
A    5
C05
A    6
C1'
A    7
N11
A    8
C12
A    9
N13
A   10
C14
A   11
C15
A   12
C16
A   13
N17
A   14
C18
A   15
C19
A   16
C2'
A   17
N20
A   18
C21
A   19
C22
A   20
C3'
A   21
C4'
A   22
C5'
A   23
C6'
A   24
F7'
M  END
>  <Id>  (59) 
4D33_6J0_B_800

>  <ChainId>  (59) 
B

>  <AsymId>  (59) 
L

>  <SeqNum>  (59) 
800

>  <Name>  (59) 
N-[2-(3-fluorophenyl)ethyl]-N'-[2-(1H-imidazol-1-yl)pyrimidin-4-yl]ethane-1,2-diamine

>  <SystematicName>  (59) 
N-[2-(3-fluorophenyl)ethyl]-N'-(2-imidazol-1-ylpyrimidin-4-yl)ethane-1,2-diamine

>  <Synonyms>  (59) 
(N1-(2-(1H-imidazol-1-yl)pyrimidin-4-yl)-N2-(3-fluorophenethyl)ethane-1,2-diamine

>  <Type>  (59) 
NON-POLYMER

>  <Formula>  (59) 
C17 H19 F N6

>  <ObservedFormula>  (59) 
C17 F N6

>  <MolecularWeight>  (59) 
326.371

>  <ModifiedDate>  (59) 
2014-12-19

>  <Parent>  (59) 


>  <OneLetterCode>  (59) 


>  <SubcomponentList>  (59) 


>  <AmbiguousFlag>  (59) 
N

>  <InsertionCode>  (59) 


>  <InstanceId>  (59) 
4D33_6J0_B_800

>  <ChemCompId>  (59) 
6J0

>  <PdbId>  (59) 
4D33

>  <ResidueNumber>  (59) 
800

>  <InChI>  (59) 
InChI=1S/C17H19FN6/c18-15-3-1-2-14(12-15)4-6-19-8-9-21-16-5-7-22-17(23-16)24-11-10-20-13-24/h1-3,5,7,10-13,19H,4,6,8-9H2,(H,21,22,23)

>  <InChIKey>  (59) 
YCRYBRYYCUMKOD-UHFFFAOYSA-N

>  <SMILES>  (59) 
c1cc(cc(c1)F)CCNCCNc2ccnc(n2)n3ccnc3

>  <MissingHeavyAtoms>  (59) 
0

>  <Model>  (59) 
1

>  <AltIds>  (59) 


>  <pKI>  (59) 
4.4

>  <ChemblID>  (59) 
CHEMBL3407806

>  <standardized_canonical_smiles>  (59) 
Fc1cccc(CCNCCNc2ccnc(-n3ccnc3)n2)c1

$$$$
4UH7_4V4_B_800
     RDKit          3D

 22 23  0  0  0  0  0  0  0  0999 V2000
   -0.5780    8.9780   66.4870 N   0  0  0  0  0  0  0  0  0  0  0  0
   -0.0140   10.0650   67.0480 C   0  0  0  0  0  0  0  0  0  0  0  0
   -0.2380   11.2670   66.4810 N   0  0  0  0  0  0  0  0  0  0  0  0
    0.7870    9.9480   68.1890 C   0  0  0  0  0  0  0  0  0  0  0  0
    0.9920    8.6860   68.7340 C   0  0  0  0  0  0  0  0  0  0  0  0
    0.3910    7.5810   68.1410 C   0  0  0  0  0  0  0  0  0  0  0  0
   -0.3920    7.7420   67.0000 C   0  0  0  0  0  0  0  0  0  0  0  0
    1.8470    8.5040   69.9610 C   0  0  0  0  0  0  0  0  0  0  0  0
   -1.0760    6.5420   66.3560 C   0  0  0  0  0  0  0  0  0  0  0  0
   -0.4120    6.0590   65.0750 C   0  0  0  0  0  0  0  0  0  0  0  0
    0.6500    5.0700   65.4590 C   0  0  0  0  0  0  0  0  0  0  0  0
    1.8480    5.5230   66.0140 C   0  0  0  0  0  0  0  0  0  0  0  0
    2.8160    4.5880   66.3730 C   0  0  0  0  0  0  0  0  0  0  0  0
    2.5910    3.2180   66.1760 C   0  0  0  0  0  0  0  0  0  0  0  0
    1.3930    2.7710   65.6270 C   0  0  0  0  0  0  0  0  0  0  0  0
    0.4200    3.7010   65.2650 C   0  0  0  0  0  0  0  0  0  0  0  0
    1.6930    0.3860   66.2850 C   0  0  0  0  0  0  0  0  0  0  0  0
    1.1510    1.4040   65.4010 N   0  0  0  0  0  0  0  0  0  0  0  0
    0.3420    1.0100   64.2480 C   0  0  0  0  0  0  0  0  0  0  0  0
    1.2500    1.1850   63.0290 C   0  0  0  0  0  0  0  0  0  0  0  0
    1.8030   -0.0590   62.5110 N   0  0  0  0  0  0  0  0  0  0  0  0
    1.2960   -1.3460   62.9540 C   0  0  0  0  0  0  0  0  0  0  0  0
  2  1  2  0
  7  1  1  0
  3  2  1  0
  4  2  1  0
  5  4  2  0
  6  5  1  0
  8  5  1  0
  7  6  2  0
  9  7  1  0
 10  9  1  0
 11 10  1  0
 12 11  2  0
 16 11  1  0
 13 12  1  0
 14 13  2  0
 15 14  1  0
 16 15  2  0
 18 15  1  0
 18 17  1  0
 19 18  1  0
 20 19  1  0
 21 20  1  0
 22 21  1  0
A    1
N01
A    2
C02
A    3
N02
A    4
C03
A    5
C04
A    6
C05
A    7
C06
A    8
C07
A    9
C08
A   10
C09
A   11
C11
A   12
C12
A   13
C13
A   14
C14
A   15
C15
A   16
C16
A   17
C17
A   18
N17
A   19
C18
A   20
C19
A   21
N20
A   22
C21
M  END
>  <Id>  (60) 
4UH7_4V4_B_800

>  <ChainId>  (60) 
B

>  <AsymId>  (60) 
M

>  <SeqNum>  (60) 
800

>  <Name>  (60) 
N1-(3-(2-(6-Amino-4-methylpyridin-2-yl)ethyl)phenyl)-N1,N2-dimethylethane-1,2-diamine

>  <SystematicName>  (60) 
N'-[3-[2-(6-azanyl-4-methyl-pyridin-2-yl)ethyl]phenyl]-N,N'-dimethyl-ethane-1,2-diamine

>  <Synonyms>  (60) 


>  <Type>  (60) 
NON-POLYMER

>  <Formula>  (60) 
C18 H26 N4

>  <ObservedFormula>  (60) 
C18 N4

>  <MolecularWeight>  (60) 
298.426

>  <ModifiedDate>  (60) 
2015-06-19

>  <Parent>  (60) 


>  <OneLetterCode>  (60) 


>  <SubcomponentList>  (60) 


>  <AmbiguousFlag>  (60) 
N

>  <InsertionCode>  (60) 


>  <InstanceId>  (60) 
4UH7_4V4_B_800

>  <ChemCompId>  (60) 
4V4

>  <PdbId>  (60) 
4UH7

>  <ResidueNumber>  (60) 
800

>  <InChI>  (60) 
InChI=1S/C18H26N4/c1-14-11-16(21-18(19)12-14)8-7-15-5-4-6-17(13-15)22(3)10-9-20-2/h4-6,11-13,20H,7-10H2,1-3H3,(H2,19,21)

>  <InChIKey>  (60) 
MIKRWQRFDGLBCF-UHFFFAOYSA-N

>  <SMILES>  (60) 
Cc1cc(nc(c1)N)CCc2cccc(c2)N(C)CCNC

>  <MissingHeavyAtoms>  (60) 
0

>  <Model>  (60) 
1

>  <AltIds>  (60) 


>  <pKI>  (60) 
4.69

>  <ChemblID>  (60) 
CHEMBL3586656

>  <standardized_canonical_smiles>  (60) 
CNCCN(C)c1cccc(CCc2cc(C)cc(N)n2)c1

$$$$
4UH8_EXI_B_800
     RDKit          3D

 22 23  0  0  0  0  0  0  0  0999 V2000
   -0.2480    8.9530   66.1190 N   0  0  0  0  0  0  0  0  0  0  0  0
   -0.1980   10.0870   66.8570 C   0  0  0  0  0  0  0  0  0  0  0  0
   -0.7780   11.2290   66.4090 N   0  0  0  0  0  0  0  0  0  0  0  0
    0.4520   10.0900   68.0880 C   0  0  0  0  0  0  0  0  0  0  0  0
    1.0510    8.9230   68.5440 C   0  0  0  0  0  0  0  0  0  0  0  0
    0.9910    7.7810   67.7680 C   0  0  0  0  0  0  0  0  0  0  0  0
    0.3410    7.8050   66.5450 C   0  0  0  0  0  0  0  0  0  0  0  0
    1.7430    8.8830   69.8800 C   0  0  0  0  0  0  0  0  0  0  0  0
    0.2890    6.5340   65.7190 C   0  0  0  0  0  0  0  0  0  0  0  0
   -1.1580    6.0870   65.5930 C   0  0  0  0  0  0  0  0  0  0  0  0
   -2.6030    3.5800   63.2150 N   0  0  0  0  0  0  0  0  0  0  0  0
   -2.4090    4.6950   63.9390 C   0  0  0  0  0  0  0  0  0  0  0  0
   -1.3160    4.8070   64.8010 C   0  0  0  0  0  0  0  0  0  0  0  0
   -0.4160    3.7460   64.9120 C   0  0  0  0  0  0  0  0  0  0  0  0
   -0.6410    2.5980   64.1490 C   0  0  0  0  0  0  0  0  0  0  0  0
   -1.7490    2.5480   63.3050 C   0  0  0  0  0  0  0  0  0  0  0  0
    0.9600    1.1530   65.4160 C   0  0  0  0  0  0  0  0  0  0  0  0
    0.2120    1.4790   64.2030 N   0  0  0  0  0  0  0  0  0  0  0  0
    0.3130    0.6460   63.0070 C   0  0  0  0  0  0  0  0  0  0  0  0
    0.8310   -0.7250   63.4310 C   0  0  0  0  0  0  0  0  0  0  0  0
    1.3710   -1.4740   62.3080 N   0  0  0  0  0  0  0  0  0  0  0  0
    2.3550   -0.8650   61.4350 C   0  0  0  0  0  0  0  0  0  0  0  0
  2  1  2  0
  7  1  1  0
  3  2  1  0
  4  2  1  0
  5  4  2  0
  6  5  1  0
  8  5  1  0
  7  6  2  0
  9  7  1  0
 10  9  1  0
 13 10  1  0
 12 11  2  0
 16 11  1  0
 13 12  1  0
 14 13  2  0
 15 14  1  0
 16 15  2  0
 18 15  1  0
 18 17  1  0
 19 18  1  0
 20 19  1  0
 21 20  1  0
 22 21  1  0
A    1
N01
A    2
C02
A    3
N02
A    4
C03
A    5
C04
A    6
C05
A    7
C06
A    8
C07
A    9
C08
A   10
C09
A   11
N11
A   12
C12
A   13
C13
A   14
C14
A   15
C15
A   16
C16
A   17
C17
A   18
N17
A   19
C18
A   20
C19
A   21
N20
A   22
C21
M  END
>  <Id>  (61) 
4UH8_EXI_B_800

>  <ChainId>  (61) 
B

>  <AsymId>  (61) 
J

>  <SeqNum>  (61) 
800

>  <Name>  (61) 
N1-(5-(2-(6-Amino-4-methylpyridin-2-yl)ethyl)pyridin-3-yl)-N1,N2-dimethylethane-1,2-diamine

>  <SystematicName>  (61) 
N'-[5-[2-(6-azanyl-4-methyl-pyridin-2-yl)ethyl]pyridin-3-yl]-N,N'-dimethyl-ethane-1,2-diamine

>  <Synonyms>  (61) 


>  <Type>  (61) 
NON-POLYMER

>  <Formula>  (61) 
C17 H25 N5

>  <ObservedFormula>  (61) 
C17 N5

>  <MolecularWeight>  (61) 
299.414

>  <ModifiedDate>  (61) 
2015-06-19

>  <Parent>  (61) 


>  <OneLetterCode>  (61) 


>  <SubcomponentList>  (61) 


>  <AmbiguousFlag>  (61) 
N

>  <InsertionCode>  (61) 


>  <InstanceId>  (61) 
4UH8_EXI_B_800

>  <ChemCompId>  (61) 
EXI

>  <PdbId>  (61) 
4UH8

>  <ResidueNumber>  (61) 
800

>  <InChI>  (61) 
InChI=1S/C17H25N5/c1-13-8-15(21-17(18)9-13)5-4-14-10-16(12-20-11-14)22(3)7-6-19-2/h8-12,19H,4-7H2,1-3H3,(H2,18,21)

>  <InChIKey>  (61) 
BAILAIZRWKFZJT-UHFFFAOYSA-N

>  <SMILES>  (61) 
Cc1cc(nc(c1)N)CCc2cc(cnc2)N(C)CCNC

>  <MissingHeavyAtoms>  (61) 
0

>  <Model>  (61) 
1

>  <AltIds>  (61) 


>  <pKI>  (61) 
4.89

>  <ChemblID>  (61) 
CHEMBL3586661

>  <standardized_canonical_smiles>  (61) 
CNCCN(C)c1cncc(CCc2cc(C)cc(N)n2)c1

$$$$
4UH9_S85_B_800
     RDKit          3D

 23 24  0  0  0  0  0  0  0  0999 V2000
    3.9250    4.9310   67.0880 F   0  0  0  0  0  0  0  0  0  0  0  0
    2.7770    4.5120   66.4850 C   0  0  0  0  0  0  0  0  0  0  0  0
    2.5170    3.1430   66.2300 C   0  0  0  0  0  0  0  0  0  0  0  0
    1.3160    2.7460   65.6260 C   0  0  0  0  0  0  0  0  0  0  0  0
    1.0870    1.3710   65.4150 N   0  0  0  0  0  0  0  0  0  0  0  0
    1.7410    0.3790   66.2560 C   0  0  0  0  0  0  0  0  0  0  0  0
    0.1940    0.9040   64.3670 C   0  0  0  0  0  0  0  0  0  0  0  0
    1.0490    0.9450   63.1010 C   0  0  0  0  0  0  0  0  0  0  0  0
    0.4340    1.9300   62.1940 N   0  0  0  0  0  0  0  0  0  0  0  0
   -0.8430    1.4050   61.6500 C   0  0  0  0  0  0  0  0  0  0  0  0
    1.8380    5.4760   66.1090 C   0  0  0  0  0  0  0  0  0  0  0  0
    0.6460    5.1000   65.5090 C   0  0  0  0  0  0  0  0  0  0  0  0
    0.3720    3.7370   65.2610 C   0  0  0  0  0  0  0  0  0  0  0  0
   -0.2970    6.2110   65.1670 C   0  0  0  0  0  0  0  0  0  0  0  0
   -0.8410    6.7700   66.4780 C   0  0  0  0  0  0  0  0  0  0  0  0
   -0.1240    7.9620   67.1460 C   0  0  0  0  0  0  0  0  0  0  0  0
   -0.3420    9.2280   66.6950 N   0  0  0  0  0  0  0  0  0  0  0  0
    0.2120   10.3020   67.2890 C   0  0  0  0  0  0  0  0  0  0  0  0
   -0.0370   11.5100   66.7720 N   0  0  0  0  0  0  0  0  0  0  0  0
    1.0460   10.1540   68.4110 C   0  0  0  0  0  0  0  0  0  0  0  0
    1.2820    8.8870   68.9150 C   0  0  0  0  0  0  0  0  0  0  0  0
    2.1410    8.7080   70.1480 C   0  0  0  0  0  0  0  0  0  0  0  0
    0.6980    7.7960   68.2730 C   0  0  0  0  0  0  0  0  0  0  0  0
  2  1  1  0
  3  2  2  0
 11  2  1  0
  4  3  1  0
  5  4  1  0
 13  4  2  0
  6  5  1  0
  7  5  1  0
  8  7  1  0
  9  8  1  0
 10  9  1  0
 12 11  2  0
 13 12  1  0
 14 12  1  0
 15 14  1  0
 16 15  1  0
 17 16  2  0
 23 16  1  0
 18 17  1  0
 19 18  1  0
 20 18  2  0
 21 20  1  0
 22 21  1  0
 23 21  2  0
A    1
F17
A    2
C13
A    3
C14
A    4
C15
A    5
N18
A    6
C19
A    7
C20
A    8
C21
A    9
N22
A   10
C23
A   11
C12
A   12
C11
A   13
C16
A   14
C09
A   15
C08
A   16
C06
A   17
N01
A   18
C02
A   19
N02
A   20
C03
A   21
C04
A   22
C07
A   23
C05
M  END
>  <Id>  (62) 
4UH9_S85_B_800

>  <ChainId>  (62) 
B

>  <AsymId>  (62) 
M

>  <SeqNum>  (62) 
800

>  <Name>  (62) 
N1-(3-(2-(6-AMINO-4-METHYLPYRIDIN-2-YL)ETHYL)-5-FLUOROPHENYL)-N1,N2-DIMETHYLETHANE-1,2-DIAMINE

>  <SystematicName>  (62) 
N'-[3-[2-(6-azanyl-4-methyl-pyridin-2-yl)ethyl]-5-fluoranyl-phenyl]-N,N'-dimethyl-ethane-1,2-diamine

>  <Synonyms>  (62) 


>  <Type>  (62) 
non-polymer

>  <Formula>  (62) 
C18 H25 F N4

>  <ObservedFormula>  (62) 
C18 F N4

>  <MolecularWeight>  (62) 
316.416

>  <ModifiedDate>  (62) 
2015-07-10

>  <Parent>  (62) 


>  <OneLetterCode>  (62) 


>  <SubcomponentList>  (62) 


>  <AmbiguousFlag>  (62) 
N

>  <InsertionCode>  (62) 


>  <InstanceId>  (62) 
4UH9_S85_B_800

>  <ChemCompId>  (62) 
S85

>  <PdbId>  (62) 
4UH9

>  <ResidueNumber>  (62) 
800

>  <InChI>  (62) 
InChI=1S/C18H25FN4/c1-13-8-16(22-18(20)9-13)5-4-14-10-15(19)12-17(11-14)23(3)7-6-21-2/h8-12,21H,4-7H2,1-3H3,(H2,20,22)

>  <InChIKey>  (62) 
ZVNKMLXKHZSKMN-UHFFFAOYSA-N

>  <SMILES>  (62) 
Cc1cc(nc(c1)N)CCc2cc(cc(c2)F)N(C)CCNC

>  <MissingHeavyAtoms>  (62) 
0

>  <Model>  (62) 
1

>  <AltIds>  (62) 


>  <pKI>  (62) 
4.52

>  <ChemblID>  (62) 
CHEMBL3586663

>  <standardized_canonical_smiles>  (62) 
CNCCN(C)c1cc(F)cc(CCc2cc(C)cc(N)n2)c1

$$$$
4UHA_Q1T_B_800
     RDKit          3D

 24 25  0  0  0  0  0  0  0  0999 V2000
   -0.5650    8.8470   65.9420 N   0  0  0  0  0  0  0  0  0  0  0  0
   -0.1730    9.9640   66.6020 C   0  0  0  0  0  0  0  0  0  0  0  0
   -0.6070   11.1870   66.2240 N   0  0  0  0  0  0  0  0  0  0  0  0
    0.6960    9.8740   67.6710 C   0  0  0  0  0  0  0  0  0  0  0  0
    1.1460    8.6260   68.0480 C   0  0  0  0  0  0  0  0  0  0  0  0
    0.7220    7.4930   67.3730 C   0  0  0  0  0  0  0  0  0  0  0  0
   -0.1470    7.6030   66.2940 C   0  0  0  0  0  0  0  0  0  0  0  0
    2.0730    8.5290   69.2180 C   0  0  0  0  0  0  0  0  0  0  0  0
   -0.6480    6.3550   65.5570 C   0  0  0  0  0  0  0  0  0  0  0  0
    0.4280    5.7630   64.6560 C   0  0  0  0  0  0  0  0  0  0  0  0
    0.1990    4.3340   64.1690 C   0  0  0  0  0  0  0  0  0  0  0  0
    0.1990    3.2680   65.0530 C   0  0  0  0  0  0  0  0  0  0  0  0
    0.0180    1.9590   64.6110 C   0  0  0  0  0  0  0  0  0  0  0  0
   -0.1720    1.6940   63.2720 C   0  0  0  0  0  0  0  0  0  0  0  0
   -0.1640    2.7480   62.3700 C   0  0  0  0  0  0  0  0  0  0  0  0
    0.0270    4.0590   62.8180 C   0  0  0  0  0  0  0  0  0  0  0  0
   -0.0020    0.9870   65.4490 C   0  0  0  0  0  0  0  0  0  0  0  0
   -0.0050    0.0810   66.1650 N   0  0  0  0  0  0  0  0  0  0  0  0
   -0.3170    1.0410   60.6130 C   0  0  0  0  0  0  0  0  0  0  0  0
   -0.3610    2.4400   61.0170 N   0  0  0  0  0  0  0  0  0  0  0  0
   -0.6100    3.4950   60.0500 C   0  0  0  0  0  0  0  0  0  0  0  0
   -2.1070    3.6890   60.1670 C   0  0  0  0  0  0  0  0  0  0  0  0
   -2.7230    4.6500   59.2830 N   0  0  0  0  0  0  0  0  0  0  0  0
   -4.1520    4.4840   59.1310 C   0  0  0  0  0  0  0  0  0  0  0  0
  2  1  2  0
  7  1  1  0
  3  2  1  0
  4  2  1  0
  5  4  2  0
  6  5  1  0
  8  5  1  0
  7  6  2  0
  9  7  1  0
 10  9  1  0
 11 10  1  0
 12 11  2  0
 16 11  1  0
 13 12  1  0
 14 13  2  0
 17 13  1  0
 15 14  1  0
 16 15  2  0
 20 15  1  0
 18 17  3  0
 20 19  1  0
 21 20  1  0
 22 21  1  0
 23 22  1  0
 24 23  1  0
A    1
N01
A    2
C02
A    3
N02
A    4
C03
A    5
C04
A    6
C05
A    7
C06
A    8
C07
A    9
C08
A   10
C09
A   11
C11
A   12
C12
A   13
C13
A   14
C14
A   15
C15
A   16
C16
A   17
C17
A   18
N18
A   19
C19
A   20
N19
A   21
C20
A   22
C21
A   23
N22
A   24
C23
M  END
>  <Id>  (63) 
4UHA_Q1T_B_800

>  <ChainId>  (63) 
B

>  <AsymId>  (63) 
L

>  <SeqNum>  (63) 
800

>  <Name>  (63) 
3-(2-(6-AMINO-4-METHYLPYRIDIN-2-YL)ETHYL)-5-(METHYL(2-(METHYLAMINO)ETHYL)AMINO)BENZONITRILE

>  <SystematicName>  (63) 
3-[2-(6-azanyl-4-methyl-pyridin-2-yl)ethyl]-5-[methyl-[2-(methylamino)ethyl]amino]benzenecarbonitrile

>  <Synonyms>  (63) 


>  <Type>  (63) 
non-polymer

>  <Formula>  (63) 
C19 H25 N5

>  <ObservedFormula>  (63) 
C19 N5

>  <MolecularWeight>  (63) 
323.435

>  <ModifiedDate>  (63) 
2015-06-19

>  <Parent>  (63) 


>  <OneLetterCode>  (63) 


>  <SubcomponentList>  (63) 


>  <AmbiguousFlag>  (63) 
N

>  <InsertionCode>  (63) 


>  <InstanceId>  (63) 
4UHA_Q1T_B_800

>  <ChemCompId>  (63) 
Q1T

>  <PdbId>  (63) 
4UHA

>  <ResidueNumber>  (63) 
800

>  <InChI>  (63) 
InChI=1S/C19H25N5/c1-14-8-17(23-19(21)9-14)5-4-15-10-16(13-20)12-18(11-15)24(3)7-6-22-2/h8-12,22H,4-7H2,1-3H3,(H2,21,23)

>  <InChIKey>  (63) 
RYFZEWNGJTVNMY-UHFFFAOYSA-N

>  <SMILES>  (63) 
Cc1cc(nc(c1)N)CCc2cc(cc(c2)N(C)CCNC)C#N

>  <MissingHeavyAtoms>  (63) 
0

>  <Model>  (63) 
1

>  <AltIds>  (63) 


>  <pKI>  (63) 
4.6

>  <ChemblID>  (63) 
CHEMBL3586664

>  <standardized_canonical_smiles>  (63) 
CNCCN(C)c1cc(C#N)cc(CCc2cc(C)cc(N)n2)c1

$$$$
5ADJ_M94_B_800
     RDKit          3D

 23 25  0  0  0  0  0  0  0  0999 V2000
   -0.8410    0.5870   60.9910 C   0  0  0  0  0  0  0  0  0  0  0  0
    0.4750    1.1200   61.3910 N   0  0  0  0  0  0  0  0  0  0  0  0
    1.3750    0.0780   61.9460 C   0  0  0  0  0  0  0  0  0  0  0  0
    1.0640   -0.4110   63.3760 C   0  0  0  0  0  0  0  0  0  0  0  0
    0.1890    1.8030   64.2340 C   0  0  0  0  0  0  0  0  0  0  0  0
    0.0350    0.4240   64.1200 C   0  0  0  0  0  0  0  0  0  0  0  0
   -1.0730   -0.1930   64.6960 C   0  0  0  0  0  0  0  0  0  0  0  0
   -2.0230    0.5730   65.3640 C   0  0  0  0  0  0  0  0  0  0  0  0
   -1.8700    1.9520   65.4640 C   0  0  0  0  0  0  0  0  0  0  0  0
   -0.7610    2.5740   64.8940 C   0  0  0  0  0  0  0  0  0  0  0  0
   -0.5810    3.9390   64.9750 O   0  0  0  0  0  0  0  0  0  0  0  0
    0.6240    4.5440   64.4850 C   0  0  0  0  0  0  0  0  0  0  0  0
    0.4350    7.9710   66.0540 C   0  0  0  0  0  0  0  0  0  0  0  0
    0.1830    6.8860   65.2350 C   0  0  0  0  0  0  0  0  0  0  0  0
    0.9190    5.7200   65.3870 C   0  0  0  0  0  0  0  0  0  0  0  0
    1.9070    5.6450   66.3660 C   0  0  0  0  0  0  0  0  0  0  0  0
    2.1520    6.7280   67.2060 C   0  0  0  0  0  0  0  0  0  0  0  0
    1.4190    7.8970   67.0440 C   0  0  0  0  0  0  0  0  0  0  0  0
    1.6580    8.9880   67.8540 C   0  0  0  0  0  0  0  0  0  0  0  0
    0.8790   10.1280   67.6510 C   0  0  0  0  0  0  0  0  0  0  0  0
   -0.0860   10.1780   66.6390 C   0  0  0  0  0  0  0  0  0  0  0  0
   -0.8350   11.2960   66.4290 N   0  0  0  0  0  0  0  0  0  0  0  0
   -0.2900    9.0960   65.8680 N   0  0  0  0  0  0  0  0  0  0  0  0
  2  1  1  0
  3  2  1  0
  4  3  1  0
  6  4  1  0
  6  5  2  0
 10  5  1  0
  7  6  1  0
  8  7  2  0
  9  8  1  0
 10  9  2  0
 11 10  1  0
 12 11  1  0
 15 12  1  0
 14 13  2  0
 18 13  1  0
 23 13  1  0
 15 14  1  0
 16 15  2  0
 17 16  1  0
 18 17  2  0
 19 18  1  0
 20 19  2  0
 21 20  1  0
 22 21  1  0
 23 21  2  0
A    1
C30
A    2
N29
A    3
C28
A    4
C27
A    5
C26
A    6
C25
A    7
C24
A    8
C23
A    9
C22
A   10
C21
A   11
O12
A   12
C11
A   13
C10
A   14
C09
A   15
C08
A   16
C07
A   17
C06
A   18
C05
A   19
C04
A   20
C03
A   21
C02
A   22
N02
A   23
N01
M  END
>  <Id>  (64) 
5ADJ_M94_B_800

>  <ChainId>  (64) 
B

>  <AsymId>  (64) 
L

>  <SeqNum>  (64) 
800

>  <Name>  (64) 
7-[[3-[2-(methylamino)ethyl]phenoxy]methyl]quinolin-2-amine

>  <SystematicName>  (64) 
7-[[3-[2-(methylamino)ethyl]phenoxy]methyl]quinolin-2-amine

>  <Synonyms>  (64) 


>  <Type>  (64) 
non-polymer

>  <Formula>  (64) 
C19 H21 N3 O

>  <ObservedFormula>  (64) 
C19 N3 O

>  <MolecularWeight>  (64) 
307.39

>  <ModifiedDate>  (64) 
2015-10-23

>  <Parent>  (64) 


>  <OneLetterCode>  (64) 


>  <SubcomponentList>  (64) 


>  <AmbiguousFlag>  (64) 
N

>  <InsertionCode>  (64) 


>  <InstanceId>  (64) 
5ADJ_M94_B_800

>  <ChemCompId>  (64) 
M94

>  <PdbId>  (64) 
5ADJ

>  <ResidueNumber>  (64) 
800

>  <InChI>  (64) 
InChI=1S/C19H21N3O/c1-21-10-9-14-3-2-4-17(11-14)23-13-15-5-6-16-7-8-19(20)22-18(16)12-15/h2-8,11-12,21H,9-10,13H2,1H3,(H2,20,22)

>  <InChIKey>  (64) 
IHPWSPZSFKTYCX-UHFFFAOYSA-N

>  <SMILES>  (64) 
CNCCc1cccc(c1)OCc2ccc3ccc(nc3c2)N

>  <MissingHeavyAtoms>  (64) 
0

>  <Model>  (64) 
1

>  <AltIds>  (64) 


>  <pKI>  (64) 
4.82

>  <ChemblID>  (64) 
CHEMBL3736417

>  <standardized_canonical_smiles>  (64) 
CNCCc1cccc(OCc2ccc3ccc(N)nc3c2)c1

$$$$
5ADK_7M3_B_800
     RDKit          3D

 23 25  0  0  0  0  0  0  0  0999 V2000
   -0.9950   11.5610   66.5810 N   0  0  0  0  0  0  0  0  0  0  0  0
   -0.2540   10.4700   66.9030 C   0  0  0  0  0  0  0  0  0  0  0  0
   -0.3730    9.3430   66.1740 N   0  0  0  0  0  0  0  0  0  0  0  0
    0.3560    8.2440   66.4670 C   0  0  0  0  0  0  0  0  0  0  0  0
    0.6160   10.5160   67.9850 C   0  0  0  0  0  0  0  0  0  0  0  0
    1.3920    9.3990   68.3000 C   0  0  0  0  0  0  0  0  0  0  0  0
    1.2480    8.2550   67.5350 C   0  0  0  0  0  0  0  0  0  0  0  0
    1.9980    7.1260   67.8380 C   0  0  0  0  0  0  0  0  0  0  0  0
    1.8720    5.9850   67.0640 C   0  0  0  0  0  0  0  0  0  0  0  0
    0.9760    5.9710   66.0020 C   0  0  0  0  0  0  0  0  0  0  0  0
    0.2060    7.0960   65.7010 C   0  0  0  0  0  0  0  0  0  0  0  0
    0.7980    4.7280   65.1760 C   0  0  0  0  0  0  0  0  0  0  0  0
   -0.6120    4.5250   65.1890 O   0  0  0  0  0  0  0  0  0  0  0  0
   -1.1690    3.2780   65.0950 C   0  0  0  0  0  0  0  0  0  0  0  0
   -2.3080    2.9390   65.8190 C   0  0  0  0  0  0  0  0  0  0  0  0
   -2.8690    1.6720   65.7060 C   0  0  0  0  0  0  0  0  0  0  0  0
   -2.2800    0.7390   64.8600 C   0  0  0  0  0  0  0  0  0  0  0  0
   -0.5900    2.3450   64.2540 C   0  0  0  0  0  0  0  0  0  0  0  0
   -1.1400    1.0750   64.1290 C   0  0  0  0  0  0  0  0  0  0  0  0
   -0.4930    0.0680   63.2000 C   0  0  0  0  0  0  0  0  0  0  0  0
    0.3590    0.7350   62.1990 N   0  0  0  0  0  0  0  0  0  0  0  0
   -0.4700    1.3210   61.1330 C   0  0  0  0  0  0  0  0  0  0  0  0
    1.2630   -0.2540   61.5950 C   0  0  0  0  0  0  0  0  0  0  0  0
  2  1  1  0
  3  2  2  0
  5  2  1  0
  4  3  1  0
  7  4  2  0
 11  4  1  0
  6  5  2  0
  7  6  1  0
  8  7  1  0
  9  8  2  0
 10  9  1  0
 11 10  2  0
 12 10  1  0
 13 12  1  0
 14 13  1  0
 15 14  2  0
 18 14  1  0
 16 15  1  0
 17 16  2  0
 19 17  1  0
 19 18  2  0
 20 19  1  0
 21 20  1  0
 22 21  1  0
 23 21  1  0
A    1
N02
A    2
C02
A    3
N01
A    4
C10
A    5
C03
A    6
C04
A    7
C05
A    8
C06
A    9
C07
A   10
C08
A   11
C09
A   12
C11
A   13
O12
A   14
C25
A   15
C24
A   16
C23
A   17
C22
A   18
C26
A   19
C21
A   20
C27
A   21
N28
A   22
C29
A   23
C30
M  END
>  <Id>  (65) 
5ADK_7M3_B_800

>  <ChainId>  (65) 
B

>  <AsymId>  (65) 
L

>  <SeqNum>  (65) 
800

>  <Name>  (65) 
7-[[3-[(dimethylamino)methyl]phenoxy]methyl]quinolin-2-amine

>  <SystematicName>  (65) 
7-[[3-[(dimethylamino)methyl]phenoxy]methyl]quinolin-2-amine

>  <Synonyms>  (65) 


>  <Type>  (65) 
non-polymer

>  <Formula>  (65) 
C19 H21 N3 O

>  <ObservedFormula>  (65) 
C19 N3 O

>  <MolecularWeight>  (65) 
307.39

>  <ModifiedDate>  (65) 
2015-10-23

>  <Parent>  (65) 


>  <OneLetterCode>  (65) 


>  <SubcomponentList>  (65) 


>  <AmbiguousFlag>  (65) 
N

>  <InsertionCode>  (65) 


>  <InstanceId>  (65) 
5ADK_7M3_B_800

>  <ChemCompId>  (65) 
7M3

>  <PdbId>  (65) 
5ADK

>  <ResidueNumber>  (65) 
800

>  <InChI>  (65) 
InChI=1S/C19H21N3O/c1-22(2)12-14-4-3-5-17(10-14)23-13-15-6-7-16-8-9-19(20)21-18(16)11-15/h3-11H,12-13H2,1-2H3,(H2,20,21)

>  <InChIKey>  (65) 
NTASSNARMLLQTN-UHFFFAOYSA-N

>  <SMILES>  (65) 
CN(C)Cc1cccc(c1)OCc2ccc3ccc(nc3c2)N

>  <MissingHeavyAtoms>  (65) 
0

>  <Model>  (65) 
1

>  <AltIds>  (65) 


>  <pKI>  (65) 
4.74

>  <ChemblID>  (65) 
CHEMBL3735617

>  <standardized_canonical_smiles>  (65) 
CN(C)Cc1cccc(OCc2ccc3ccc(N)nc3c2)c1

$$$$
5ADL_M85_B_800
     RDKit          3D

 22 24  0  0  0  0  0  0  0  0999 V2000
   -0.3150    9.3740   66.2330 N   0  0  0  0  0  0  0  0  0  0  0  0
   -0.1550   10.4840   66.9800 C   0  0  0  0  0  0  0  0  0  0  0  0
   -0.8670   11.5970   66.6570 N   0  0  0  0  0  0  0  0  0  0  0  0
    0.7340   10.4770   68.0630 C   0  0  0  0  0  0  0  0  0  0  0  0
    1.4730    9.3290   68.3680 C   0  0  0  0  0  0  0  0  0  0  0  0
    1.2810    8.2030   67.5820 C   0  0  0  0  0  0  0  0  0  0  0  0
    1.9830    7.0260   67.8470 C   0  0  0  0  0  0  0  0  0  0  0  0
    1.7810    5.9110   67.0370 C   0  0  0  0  0  0  0  0  0  0  0  0
    0.8640    5.9800   65.9830 C   0  0  0  0  0  0  0  0  0  0  0  0
    0.1690    7.1480   65.7160 C   0  0  0  0  0  0  0  0  0  0  0  0
    0.3800    8.2520   66.5140 C   0  0  0  0  0  0  0  0  0  0  0  0
    0.6180    4.7910   65.0950 C   0  0  0  0  0  0  0  0  0  0  0  0
   -0.7300    4.3360   65.2560 O   0  0  0  0  0  0  0  0  0  0  0  0
   -0.6830    1.1500   63.5000 C   0  0  0  0  0  0  0  0  0  0  0  0
   -1.5210    0.3830   64.3050 C   0  0  0  0  0  0  0  0  0  0  0  0
   -2.1010    0.9410   65.4420 C   0  0  0  0  0  0  0  0  0  0  0  0
   -1.8460    2.2690   65.7750 C   0  0  0  0  0  0  0  0  0  0  0  0
   -1.0110    3.0320   64.9630 C   0  0  0  0  0  0  0  0  0  0  0  0
   -0.4350    2.4740   63.8300 C   0  0  0  0  0  0  0  0  0  0  0  0
   -0.0480    0.5670   62.2570 C   0  0  0  0  0  0  0  0  0  0  0  0
   -0.4200    1.3870   61.0910 N   0  0  0  0  0  0  0  0  0  0  0  0
   -1.8620    1.2200   60.8380 C   0  0  0  0  0  0  0  0  0  0  0  0
  2  1  2  0
 11  1  1  0
  3  2  1  0
  4  2  1  0
  5  4  2  0
  6  5  1  0
  7  6  1  0
 11  6  2  0
  8  7  2  0
  9  8  1  0
 10  9  2  0
 12  9  1  0
 11 10  1  0
 13 12  1  0
 18 13  1  0
 15 14  2  0
 19 14  1  0
 20 14  1  0
 16 15  1  0
 17 16  2  0
 18 17  1  0
 19 18  2  0
 21 20  1  0
 22 21  1  0
A    1
N01
A    2
C02
A    3
N02
A    4
C03
A    5
C04
A    6
C05
A    7
C06
A    8
C07
A    9
C08
A   10
C09
A   11
C10
A   12
C11
A   13
O12
A   14
C21
A   15
C22
A   16
C23
A   17
C24
A   18
C25
A   19
C26
A   20
C27
A   21
N28
A   22
C29
M  END
>  <Id>  (66) 
5ADL_M85_B_800

>  <ChainId>  (66) 
B

>  <AsymId>  (66) 
L

>  <SeqNum>  (66) 
800

>  <Name>  (66) 
7-[[3-(methylaminomethyl)phenoxy]methyl]quinolin-2-amine

>  <SystematicName>  (66) 
7-[[3-(methylaminomethyl)phenoxy]methyl]quinolin-2-amine

>  <Synonyms>  (66) 


>  <Type>  (66) 
NON-POLYMER

>  <Formula>  (66) 
C18 H19 N3 O

>  <ObservedFormula>  (66) 
C18 N3 O

>  <MolecularWeight>  (66) 
293.363

>  <ModifiedDate>  (66) 
2015-10-23

>  <Parent>  (66) 


>  <OneLetterCode>  (66) 


>  <SubcomponentList>  (66) 


>  <AmbiguousFlag>  (66) 
N

>  <InsertionCode>  (66) 


>  <InstanceId>  (66) 
5ADL_M85_B_800

>  <ChemCompId>  (66) 
M85

>  <PdbId>  (66) 
5ADL

>  <ResidueNumber>  (66) 
800

>  <InChI>  (66) 
InChI=1S/C18H19N3O/c1-20-11-13-3-2-4-16(9-13)22-12-14-5-6-15-7-8-18(19)21-17(15)10-14/h2-10,20H,11-12H2,1H3,(H2,19,21)

>  <InChIKey>  (66) 
QFZGTQOWVVISDX-UHFFFAOYSA-N

>  <SMILES>  (66) 
CNCc1cccc(c1)OCc2ccc3ccc(nc3c2)N

>  <MissingHeavyAtoms>  (66) 
0

>  <Model>  (66) 
1

>  <AltIds>  (66) 


>  <pKI>  (66) 
4.6

>  <ChemblID>  (66) 
CHEMBL3736143

>  <standardized_canonical_smiles>  (66) 
CNCc1cccc(OCc2ccc3ccc(N)nc3c2)c1

$$$$
5ADM_9M9_B_800
     RDKit          3D

 21 23  0  0  0  0  0  0  0  0999 V2000
   -0.1770    9.1290   66.1150 N   0  0  0  0  0  0  0  0  0  0  0  0
    0.0340   10.2330   66.8500 C   0  0  0  0  0  0  0  0  0  0  0  0
   -0.7010   11.3530   66.6130 N   0  0  0  0  0  0  0  0  0  0  0  0
    1.0110   10.2350   67.8440 C   0  0  0  0  0  0  0  0  0  0  0  0
    1.7890    9.1140   68.0820 C   0  0  0  0  0  0  0  0  0  0  0  0
    1.5430    7.9910   67.3220 C   0  0  0  0  0  0  0  0  0  0  0  0
    2.2820    6.8350   67.5350 C   0  0  0  0  0  0  0  0  0  0  0  0
    2.0430    5.7140   66.7540 C   0  0  0  0  0  0  0  0  0  0  0  0
    1.0480    5.7340   65.7810 C   0  0  0  0  0  0  0  0  0  0  0  0
    0.3010    6.8840   65.5780 C   0  0  0  0  0  0  0  0  0  0  0  0
    0.5530    8.0160   66.3410 C   0  0  0  0  0  0  0  0  0  0  0  0
    0.7630    4.5100   64.9420 C   0  0  0  0  0  0  0  0  0  0  0  0
   -0.5680    4.0930   65.2620 O   0  0  0  0  0  0  0  0  0  0  0  0
   -1.0360    0.9720   63.3820 C   0  0  0  0  0  0  0  0  0  0  0  0
   -2.0410    0.3600   64.1310 C   0  0  0  0  0  0  0  0  0  0  0  0
   -2.5510    0.9930   65.2610 C   0  0  0  0  0  0  0  0  0  0  0  0
   -2.0540    2.2390   65.6370 C   0  0  0  0  0  0  0  0  0  0  0  0
   -1.0490    2.8560   64.8920 C   0  0  0  0  0  0  0  0  0  0  0  0
   -0.5480    2.2210   63.7590 C   0  0  0  0  0  0  0  0  0  0  0  0
   -0.4840    0.2890   62.1490 C   0  0  0  0  0  0  0  0  0  0  0  0
   -0.0030    1.3100   61.2000 N   0  0  0  0  0  0  0  0  0  0  0  0
  2  1  2  0
 11  1  1  0
  3  2  1  0
  4  2  1  0
  5  4  2  0
  6  5  1  0
  7  6  1  0
 11  6  2  0
  8  7  2  0
  9  8  1  0
 10  9  2  0
 12  9  1  0
 11 10  1  0
 13 12  1  0
 18 13  1  0
 15 14  2  0
 19 14  1  0
 20 14  1  0
 16 15  1  0
 17 16  2  0
 18 17  1  0
 19 18  2  0
 21 20  1  0
A    1
N01
A    2
C02
A    3
N02
A    4
C03
A    5
C04
A    6
C05
A    7
C06
A    8
C07
A    9
C08
A   10
C09
A   11
C10
A   12
C11
A   13
O12
A   14
C21
A   15
C22
A   16
C23
A   17
C24
A   18
C25
A   19
C26
A   20
C27
A   21
N28
M  END
>  <Id>  (67) 
5ADM_9M9_B_800

>  <ChainId>  (67) 
B

>  <AsymId>  (67) 
L

>  <SeqNum>  (67) 
800

>  <Name>  (67) 
7-[[3-(aminomethyl)phenoxy]methyl]quinolin-2-amine

>  <SystematicName>  (67) 
7-[[3-(aminomethyl)phenoxy]methyl]quinolin-2-amine

>  <Synonyms>  (67) 


>  <Type>  (67) 
NON-POLYMER

>  <Formula>  (67) 
C17 H17 N3 O

>  <ObservedFormula>  (67) 
C17 N3 O

>  <MolecularWeight>  (67) 
279.336

>  <ModifiedDate>  (67) 
2015-10-23

>  <Parent>  (67) 


>  <OneLetterCode>  (67) 


>  <SubcomponentList>  (67) 


>  <AmbiguousFlag>  (67) 
N

>  <InsertionCode>  (67) 


>  <InstanceId>  (67) 
5ADM_9M9_B_800

>  <ChemCompId>  (67) 
9M9

>  <PdbId>  (67) 
5ADM

>  <ResidueNumber>  (67) 
800

>  <InChI>  (67) 
InChI=1S/C17H17N3O/c18-10-12-2-1-3-15(8-12)21-11-13-4-5-14-6-7-17(19)20-16(14)9-13/h1-9H,10-11,18H2,(H2,19,20)

>  <InChIKey>  (67) 
ADYDYORVGGQJTJ-UHFFFAOYSA-N

>  <SMILES>  (67) 
c1cc(cc(c1)OCc2ccc3ccc(nc3c2)N)CN

>  <MissingHeavyAtoms>  (67) 
0

>  <Model>  (67) 
1

>  <AltIds>  (67) 


>  <pKI>  (67) 
4.89

>  <ChemblID>  (67) 
CHEMBL3736444

>  <standardized_canonical_smiles>  (67) 
NCc1cccc(OCc2ccc3ccc(N)nc3c2)c1

$$$$
5ADN_2SN_B_800
     RDKit          3D

 23 25  0  0  0  0  0  0  0  0999 V2000
   -0.3560   -1.1910   64.2380 C   0  0  0  0  0  0  0  0  0  0  0  0
    0.2410   -0.8270   65.5350 N   0  0  0  0  0  0  0  0  0  0  0  0
    1.5670   -0.2200   65.3440 C   0  0  0  0  0  0  0  0  0  0  0  0
   -0.6320    0.0630   66.3340 C   0  0  0  0  0  0  0  0  0  0  0  0
   -0.7560    2.2000   65.0450 C   0  0  0  0  0  0  0  0  0  0  0  0
   -1.4100    1.1040   65.5810 C   0  0  0  0  0  0  0  0  0  0  0  0
   -2.7910    0.9700   65.4670 C   0  0  0  0  0  0  0  0  0  0  0  0
   -3.5230    1.9260   64.7810 C   0  0  0  0  0  0  0  0  0  0  0  0
   -2.8610    3.0210   64.2350 C   0  0  0  0  0  0  0  0  0  0  0  0
   -1.4820    3.1600   64.3620 C   0  0  0  0  0  0  0  0  0  0  0  0
   -0.8260    4.2160   63.8390 N   0  0  0  0  0  0  0  0  0  0  0  0
    0.5640    4.3780   64.2040 C   0  0  0  0  0  0  0  0  0  0  0  0
    0.1610    7.8640   65.6930 C   0  0  0  0  0  0  0  0  0  0  0  0
   -0.0280    6.7380   64.8910 C   0  0  0  0  0  0  0  0  0  0  0  0
    0.7400    5.5930   65.0870 C   0  0  0  0  0  0  0  0  0  0  0  0
    1.6910    5.5750   66.1010 C   0  0  0  0  0  0  0  0  0  0  0  0
    1.8600    6.6880   66.9180 C   0  0  0  0  0  0  0  0  0  0  0  0
    1.1050    7.8350   66.7100 C   0  0  0  0  0  0  0  0  0  0  0  0
    1.2980    8.9550   67.5110 C   0  0  0  0  0  0  0  0  0  0  0  0
    0.5090   10.0630   67.2940 C   0  0  0  0  0  0  0  0  0  0  0  0
   -0.4240   10.0800   66.2730 C   0  0  0  0  0  0  0  0  0  0  0  0
   -1.1680   11.2040   66.0700 N   0  0  0  0  0  0  0  0  0  0  0  0
   -0.5820    8.9790   65.4930 N   0  0  0  0  0  0  0  0  0  0  0  0
  2  1  1  0
  3  2  1  0
  4  2  1  0
  6  4  1  0
  6  5  2  0
 10  5  1  0
  7  6  1  0
  8  7  2  0
  9  8  1  0
 10  9  2  0
 11 10  1  0
 12 11  1  0
 15 12  1  0
 14 13  2  0
 18 13  1  0
 23 13  1  0
 15 14  1  0
 16 15  2  0
 17 16  1  0
 18 17  2  0
 19 18  1  0
 20 19  2  0
 21 20  1  0
 22 21  1  0
 23 21  2  0
A    1
C26
A    2
N24
A    3
C25
A    4
C23
A    5
C16
A    6
C15
A    7
C14
A    8
C13
A    9
C12
A   10
C11
A   11
N22
A   12
C21
A   13
C10
A   14
C09
A   15
C08
A   16
C07
A   17
C06
A   18
C05
A   19
C04
A   20
C03
A   21
C02
A   22
N02
A   23
N01
M  END
>  <Id>  (68) 
5ADN_2SN_B_800

>  <ChainId>  (68) 
B

>  <AsymId>  (68) 
M

>  <SeqNum>  (68) 
800

>  <Name>  (68) 
7-[[[3-[(dimethylamino)methyl]phenyl]amino]methyl]quinolin-2-amine

>  <SystematicName>  (68) 
7-[[[3-[(dimethylamino)methyl]phenyl]amino]methyl]quinolin-2-amine

>  <Synonyms>  (68) 


>  <Type>  (68) 
non-polymer

>  <Formula>  (68) 
C19 H22 N4

>  <ObservedFormula>  (68) 
C19 N4

>  <MolecularWeight>  (68) 
306.405

>  <ModifiedDate>  (68) 
2015-10-23

>  <Parent>  (68) 


>  <OneLetterCode>  (68) 


>  <SubcomponentList>  (68) 


>  <AmbiguousFlag>  (68) 
N

>  <InsertionCode>  (68) 


>  <InstanceId>  (68) 
5ADN_2SN_B_800

>  <ChemCompId>  (68) 
2SN

>  <PdbId>  (68) 
5ADN

>  <ResidueNumber>  (68) 
800

>  <InChI>  (68) 
InChI=1S/C19H22N4/c1-23(2)13-15-4-3-5-17(10-15)21-12-14-6-7-16-8-9-19(20)22-18(16)11-14/h3-11,21H,12-13H2,1-2H3,(H2,20,22)

>  <InChIKey>  (68) 
KLVQNBMBSWDRJZ-UHFFFAOYSA-N

>  <SMILES>  (68) 
CN(C)Cc1cccc(c1)NCc2ccc3ccc(nc3c2)N

>  <MissingHeavyAtoms>  (68) 
0

>  <Model>  (68) 
1

>  <AltIds>  (68) 


>  <pKI>  (68) 
4.94

>  <ChemblID>  (68) 
CHEMBL3735825

>  <standardized_canonical_smiles>  (68) 
CN(C)Cc1cccc(NCc2ccc3ccc(N)nc3c2)c1

$$$$
5FJ3_XEB_B_800
     RDKit          3D

 23 25  0  0  0  0  0  0  0  0999 V2000
   -0.2300    9.3290   65.8710 N   0  0  0  0  0  0  0  0  0  0  0  0
   -0.0170   10.4470   66.5860 C   0  0  0  0  0  0  0  0  0  0  0  0
   -0.8100   11.5270   66.3680 N   0  0  0  0  0  0  0  0  0  0  0  0
    1.0090   10.4770   67.5320 C   0  0  0  0  0  0  0  0  0  0  0  0
    1.8230    9.3770   67.7350 C   0  0  0  0  0  0  0  0  0  0  0  0
    1.5750    8.2460   66.9830 C   0  0  0  0  0  0  0  0  0  0  0  0
    2.3460    7.0980   67.1610 C   0  0  0  0  0  0  0  0  0  0  0  0
    2.0920    5.9630   66.3960 C   0  0  0  0  0  0  0  0  0  0  0  0
    1.0500    5.9800   65.4630 C   0  0  0  0  0  0  0  0  0  0  0  0
    0.2690    7.1180   65.2970 C   0  0  0  0  0  0  0  0  0  0  0  0
    0.5400    8.2420   66.0530 C   0  0  0  0  0  0  0  0  0  0  0  0
    0.7640    4.7530   64.6360 C   0  0  0  0  0  0  0  0  0  0  0  0
    1.5880    3.7350   65.1850 O   0  0  0  0  0  0  0  0  0  0  0  0
    1.4030    2.4470   64.7900 C   0  0  0  0  0  0  0  0  0  0  0  0
    1.7190    1.4050   65.6540 C   0  0  0  0  0  0  0  0  0  0  0  0
    1.5270    0.0950   65.2480 C   0  0  0  0  0  0  0  0  0  0  0  0
    1.0230   -0.1550   63.9710 C   0  0  0  0  0  0  0  0  0  0  0  0
    0.7060    0.8980   63.1030 C   0  0  0  0  0  0  0  0  0  0  0  0
    0.9020    2.2050   63.5200 C   0  0  0  0  0  0  0  0  0  0  0  0
    0.7970   -1.8630   63.4660 Cl  0  0  0  0  0  0  0  0  0  0  0  0
    0.1620    0.6840   61.7020 C   0  0  0  0  0  0  0  0  0  0  0  0
    0.9690   -0.3060   60.9640 N   0  0  0  0  0  0  0  0  0  0  0  0
    2.3750    0.1220   60.9510 C   0  0  0  0  0  0  0  0  0  0  0  0
  2  1  2  0
 11  1  1  0
  3  2  1  0
  4  2  1  0
  5  4  2  0
  6  5  1  0
  7  6  1  0
 11  6  2  0
  8  7  2  0
  9  8  1  0
 10  9  2  0
 12  9  1  0
 11 10  1  0
 13 12  1  0
 14 13  1  0
 15 14  2  0
 19 14  1  0
 16 15  1  0
 17 16  2  0
 18 17  1  0
 20 17  1  0
 19 18  2  0
 21 18  1  0
 22 21  1  0
 23 22  1  0
A    1
N01
A    2
C02
A    3
N02
A    4
C03
A    5
C04
A    6
C05
A    7
C06
A    8
C07
A    9
C08
A   10
C09
A   11
C10
A   12
C11
A   13
O12
A   14
C21
A   15
C22
A   16
C23
A   17
C24
A   18
C25
A   19
C26
A   20
CL
A   21
C28
A   22
N29
A   23
C30
M  END
>  <Id>  (69) 
5FJ3_XEB_B_800

>  <ChainId>  (69) 
B

>  <AsymId>  (69) 
K

>  <SeqNum>  (69) 
800

>  <Name>  (69) 
7-[[4-chloranyl-3-(methylaminomethyl)phenoxy]methyl]quinolin-2-amine

>  <SystematicName>  (69) 
7-[[4-chloranyl-3-(methylaminomethyl)phenoxy]methyl]quinolin-2-amine

>  <Synonyms>  (69) 


>  <Type>  (69) 
NON-POLYMER

>  <Formula>  (69) 
C18 H18 Cl N3 O

>  <ObservedFormula>  (69) 
C18 Cl N3 O

>  <MolecularWeight>  (69) 
327.808

>  <ModifiedDate>  (69) 
2015-10-23

>  <Parent>  (69) 


>  <OneLetterCode>  (69) 


>  <SubcomponentList>  (69) 


>  <AmbiguousFlag>  (69) 
N

>  <InsertionCode>  (69) 


>  <InstanceId>  (69) 
5FJ3_XEB_B_800

>  <ChemCompId>  (69) 
XEB

>  <PdbId>  (69) 
5FJ3

>  <ResidueNumber>  (69) 
800

>  <InChI>  (69) 
InChI=1S/C18H18ClN3O/c1-21-10-14-9-15(5-6-16(14)19)23-11-12-2-3-13-4-7-18(20)22-17(13)8-12/h2-9,21H,10-11H2,1H3,(H2,20,22)

>  <InChIKey>  (69) 
SVDORCPNIHFYFA-UHFFFAOYSA-N

>  <SMILES>  (69) 
CNCc1cc(ccc1Cl)OCc2ccc3ccc(nc3c2)N

>  <MissingHeavyAtoms>  (69) 
0

>  <Model>  (69) 
1

>  <AltIds>  (69) 


>  <pKI>  (69) 
4.9

>  <ChemblID>  (69) 
CHEMBL3735289

>  <standardized_canonical_smiles>  (69) 
CNCc1cc(OCc2ccc3ccc(N)nc3c2)ccc1Cl

$$$$
5FJ2_XEB_B_800
     RDKit          3D

 23 25  0  0  0  0  0  0  0  0999 V2000
   -0.2860    8.9960   65.8820 N   0  0  0  0  0  0  0  0  0  0  0  0
   -0.1790   10.1600   66.5660 C   0  0  0  0  0  0  0  0  0  0  0  0
   -0.9700   11.2190   66.2380 N   0  0  0  0  0  0  0  0  0  0  0  0
    0.7470   10.2800   67.6030 C   0  0  0  0  0  0  0  0  0  0  0  0
    1.5750    9.2150   67.9410 C   0  0  0  0  0  0  0  0  0  0  0  0
    1.4350    8.0320   67.2250 C   0  0  0  0  0  0  0  0  0  0  0  0
    2.2330    6.9340   67.5370 C   0  0  0  0  0  0  0  0  0  0  0  0
    2.1170    5.7450   66.8280 C   0  0  0  0  0  0  0  0  0  0  0  0
    1.1820    5.6510   65.8040 C   0  0  0  0  0  0  0  0  0  0  0  0
    0.3710    6.7420   65.4860 C   0  0  0  0  0  0  0  0  0  0  0  0
    0.5000    7.9360   66.1930 C   0  0  0  0  0  0  0  0  0  0  0  0
    1.0360    4.3650   65.0290 C   0  0  0  0  0  0  0  0  0  0  0  0
   -0.3320    4.3040   64.6490 O   0  0  0  0  0  0  0  0  0  0  0  0
   -1.0260    3.1210   64.5900 C   0  0  0  0  0  0  0  0  0  0  0  0
   -2.3240    3.1160   65.0780 C   0  0  0  0  0  0  0  0  0  0  0  0
   -3.0950    1.9640   65.0490 C   0  0  0  0  0  0  0  0  0  0  0  0
   -2.5600    0.8000   64.5110 C   0  0  0  0  0  0  0  0  0  0  0  0
   -1.2560    0.7890   64.0070 C   0  0  0  0  0  0  0  0  0  0  0  0
   -0.4830    1.9540   64.0450 C   0  0  0  0  0  0  0  0  0  0  0  0
   -3.5920   -0.6740   64.4800 Cl  0  0  0  0  0  0  0  0  0  0  0  0
   -0.6700   -0.4840   63.4250 C   0  0  0  0  0  0  0  0  0  0  0  0
   -1.6110   -1.6040   63.6260 N   0  0  0  0  0  0  0  0  0  0  0  0
   -0.9130   -2.7550   64.2280 C   0  0  0  0  0  0  0  0  0  0  0  0
  2  1  2  0
 11  1  1  0
  3  2  1  0
  4  2  1  0
  5  4  2  0
  6  5  1  0
  7  6  1  0
 11  6  2  0
  8  7  2  0
  9  8  1  0
 10  9  2  0
 12  9  1  0
 11 10  1  0
 13 12  1  0
 14 13  1  0
 15 14  2  0
 19 14  1  0
 16 15  1  0
 17 16  2  0
 18 17  1  0
 20 17  1  0
 19 18  2  0
 21 18  1  0
 22 21  1  0
 23 22  1  0
A    1
N01
A    2
C02
A    3
N02
A    4
C03
A    5
C04
A    6
C05
A    7
C06
A    8
C07
A    9
C08
A   10
C09
A   11
C10
A   12
C11
A   13
O12
A   14
C21
A   15
C22
A   16
C23
A   17
C24
A   18
C25
A   19
C26
A   20
CL
A   21
C28
A   22
N29
A   23
C30
M  END
>  <Id>  (70) 
5FJ2_XEB_B_800

>  <ChainId>  (70) 
B

>  <AsymId>  (70) 
K

>  <SeqNum>  (70) 
800

>  <Name>  (70) 
7-[[4-chloranyl-3-(methylaminomethyl)phenoxy]methyl]quinolin-2-amine

>  <SystematicName>  (70) 
7-[[4-chloranyl-3-(methylaminomethyl)phenoxy]methyl]quinolin-2-amine

>  <Synonyms>  (70) 


>  <Type>  (70) 
NON-POLYMER

>  <Formula>  (70) 
C18 H18 Cl N3 O

>  <ObservedFormula>  (70) 
C18 Cl N3 O

>  <MolecularWeight>  (70) 
327.808

>  <ModifiedDate>  (70) 
2015-10-23

>  <Parent>  (70) 


>  <OneLetterCode>  (70) 


>  <SubcomponentList>  (70) 


>  <AmbiguousFlag>  (70) 
N

>  <InsertionCode>  (70) 


>  <InstanceId>  (70) 
5FJ2_XEB_B_800

>  <ChemCompId>  (70) 
XEB

>  <PdbId>  (70) 
5FJ2

>  <ResidueNumber>  (70) 
800

>  <InChI>  (70) 
InChI=1S/C18H18ClN3O/c1-21-10-14-9-15(5-6-16(14)19)23-11-12-2-3-13-4-7-18(20)22-17(13)8-12/h2-9,21H,10-11H2,1H3,(H2,20,22)

>  <InChIKey>  (70) 
SVDORCPNIHFYFA-UHFFFAOYSA-N

>  <SMILES>  (70) 
CNCc1cc(ccc1Cl)OCc2ccc3ccc(nc3c2)N

>  <MissingHeavyAtoms>  (70) 
0

>  <Model>  (70) 
1

>  <AltIds>  (70) 


>  <pKI>  (70) 
4.9

>  <ChemblID>  (70) 
CHEMBL3735289

>  <standardized_canonical_smiles>  (70) 
CNCc1cc(OCc2ccc3ccc(N)nc3c2)ccc1Cl

$$$$
5FVZ_W67_B_800
     RDKit          3D

 22 23  0  0  0  0  0  0  0  0999 V2000
   -0.4950    9.3080   66.5780 N   0  0  0  0  0  0  0  0  0  0  0  0
   -0.3620   10.4390   67.3260 C   0  0  0  0  0  0  0  0  0  0  0  0
   -0.8520   11.6190   66.8510 N   0  0  0  0  0  0  0  0  0  0  0  0
    0.2670   10.3930   68.5770 C   0  0  0  0  0  0  0  0  0  0  0  0
    0.7550    9.1690   69.0580 C   0  0  0  0  0  0  0  0  0  0  0  0
    0.6060    8.0250   68.2830 C   0  0  0  0  0  0  0  0  0  0  0  0
   -0.0170    8.1230   67.0340 C   0  0  0  0  0  0  0  0  0  0  0  0
    1.4400    9.0780   70.4060 C   0  0  0  0  0  0  0  0  0  0  0  0
   -0.1860    6.8860   66.1900 C   0  0  0  0  0  0  0  0  0  0  0  0
   -1.6670    6.5380   66.2100 C   0  0  0  0  0  0  0  0  0  0  0  0
   -3.0390    5.5590   62.8550 N   0  0  0  0  0  0  0  0  0  0  0  0
   -2.6850    6.3010   63.9240 C   0  0  0  0  0  0  0  0  0  0  0  0
   -2.0500    5.7070   65.0120 C   0  0  0  0  0  0  0  0  0  0  0  0
   -1.7690    4.3470   64.9930 C   0  0  0  0  0  0  0  0  0  0  0  0
   -2.1420    3.5970   63.8810 C   0  0  0  0  0  0  0  0  0  0  0  0
   -2.7850    4.2320   62.8120 C   0  0  0  0  0  0  0  0  0  0  0  0
   -1.8370    2.1130   63.8400 C   0  0  0  0  0  0  0  0  0  0  0  0
   -0.4050    1.8410   63.3570 C   0  0  0  0  0  0  0  0  0  0  0  0
   -0.0750    0.3460   63.3770 C   0  0  0  0  0  0  0  0  0  0  0  0
    1.6240   -1.3530   63.1210 C   0  0  0  0  0  0  0  0  0  0  0  0
    1.3230    0.0780   62.9780 N   0  0  0  0  0  0  0  0  0  0  0  0
    1.5590    0.4340   61.5740 C   0  0  0  0  0  0  0  0  0  0  0  0
  2  1  2  0
  7  1  1  0
  3  2  1  0
  4  2  1  0
  5  4  2  0
  6  5  1  0
  8  5  1  0
  7  6  2  0
  9  7  1  0
 10  9  1  0
 13 10  1  0
 12 11  2  0
 16 11  1  0
 13 12  1  0
 14 13  2  0
 15 14  1  0
 16 15  2  0
 17 15  1  0
 18 17  1  0
 19 18  1  0
 21 19  1  0
 21 20  1  0
 22 21  1  0
A    1
N01
A    2
C02
A    3
N02
A    4
C03
A    5
C04
A    6
C05
A    7
C06
A    8
C07
A    9
C08
A   10
C09
A   11
N11
A   12
C12
A   13
C13
A   14
C14
A   15
C15
A   16
C16
A   17
C17
A   18
C18
A   19
C19
A   20
C22
A   21
N20
A   22
C21
M  END
>  <Id>  (71) 
5FVZ_W67_B_800

>  <ChainId>  (71) 
B

>  <AsymId>  (71) 
K

>  <SeqNum>  (71) 
800

>  <Name>  (71) 
6-(2-(5-(3-(DIMETHYLAMINO)PROPYL)PYRIDIN-3-YL)ETHYL)-4-METHYLPYRIDIN-2-AMINE

>  <SystematicName>  (71) 
6-[2-[5-[3-(dimethylamino)propyl]pyridin-3-yl]ethyl]-4-methyl-pyridin-2-amine

>  <Synonyms>  (71) 


>  <Type>  (71) 
non-polymer

>  <Formula>  (71) 
C18 H26 N4

>  <ObservedFormula>  (71) 
C18 N4

>  <MolecularWeight>  (71) 
298.426

>  <ModifiedDate>  (71) 
2016-04-15

>  <Parent>  (71) 


>  <OneLetterCode>  (71) 


>  <SubcomponentList>  (71) 


>  <AmbiguousFlag>  (71) 
N

>  <InsertionCode>  (71) 


>  <InstanceId>  (71) 
5FVZ_W67_B_800

>  <ChemCompId>  (71) 
W67

>  <PdbId>  (71) 
5FVZ

>  <ResidueNumber>  (71) 
800

>  <InChI>  (71) 
InChI=1S/C18H26N4/c1-14-9-17(21-18(19)10-14)7-6-16-11-15(12-20-13-16)5-4-8-22(2)3/h9-13H,4-8H2,1-3H3,(H2,19,21)

>  <InChIKey>  (71) 
TUAXAWZDVAYXFN-UHFFFAOYSA-N

>  <SMILES>  (71) 
Cc1cc(nc(c1)N)CCc2cc(cnc2)CCCN(C)C

>  <MissingHeavyAtoms>  (71) 
0

>  <Model>  (71) 
1

>  <AltIds>  (71) 


>  <pKI>  (71) 
4.78

>  <ChemblID>  (71) 
CHEMBL3818566

>  <standardized_canonical_smiles>  (71) 
Cc1cc(N)nc(CCc2cncc(CCCN(C)C)c2)c1

$$$$
5VV8_9P7_B_503
     RDKit          3D

 24 26  0  0  0  0  0  0  0  0999 V2000
    0.0820    7.5950   65.9850 C   0  0  0  0  0  0  0  0  0  0  0  0
   -0.3440    4.1490   64.4950 C   0  0  0  0  0  0  0  0  0  0  0  0
    0.0410    2.2720   63.0760 C   0  0  0  0  0  0  0  0  0  0  0  0
    0.7340    1.9040   61.7680 C   0  0  0  0  0  0  0  0  0  0  0  0
    0.3360   -4.7590   60.7970 N   0  0  0  0  0  0  0  0  0  0  0  0
    0.4360   -3.6030   60.8990 C   0  0  0  0  0  0  0  0  0  0  0  0
    0.4460   -2.3250   61.0830 C   0  0  0  0  0  0  0  0  0  0  0  0
    1.6390   -1.7700   61.5660 C   0  0  0  0  0  0  0  0  0  0  0  0
   -0.6410   -1.5240   60.8150 C   0  0  0  0  0  0  0  0  0  0  0  0
   -1.9430   -2.1080   60.2890 C   0  0  0  0  0  0  0  0  0  0  0  0
   -0.5650   -0.1490   61.0290 C   0  0  0  0  0  0  0  0  0  0  0  0
    0.6190    0.4090   61.5150 C   0  0  0  0  0  0  0  0  0  0  0  0
    1.7160   -0.4090   61.7810 C   0  0  0  0  0  0  0  0  0  0  0  0
    0.6250    3.5300   63.5830 N   0  0  0  0  0  0  0  0  0  0  0  0
    0.2240    5.2890   65.3150 C   0  0  0  0  0  0  0  0  0  0  0  0
   -0.4020    6.5240   65.2490 C   0  0  0  0  0  0  0  0  0  0  0  0
    1.3420    5.1390   66.1340 C   0  0  0  0  0  0  0  0  0  0  0  0
    1.8180    6.2110   66.8890 C   0  0  0  0  0  0  0  0  0  0  0  0
    1.1800    7.4490   66.8180 C   0  0  0  0  0  0  0  0  0  0  0  0
    1.6250    8.5410   67.5630 C   0  0  0  0  0  0  0  0  0  0  0  0
    0.9490    9.7570   67.4470 C   0  0  0  0  0  0  0  0  0  0  0  0
   -0.1510    9.8530   66.5900 C   0  0  0  0  0  0  0  0  0  0  0  0
   -0.8440   11.0160   66.4380 N   0  0  0  0  0  0  0  0  0  0  0  0
   -0.5480    8.7750   65.8870 N   0  0  0  0  0  0  0  0  0  0  0  0
 16  1  2  0
 19  1  1  0
 24  1  1  0
 14  2  1  0
 15  2  1  0
  4  3  1  0
 14  3  1  0
 12  4  1  0
  6  5  3  0
  7  6  1  0
  8  7  2  0
  9  7  1  0
 13  8  1  0
 10  9  1  0
 11  9  2  0
 12 11  1  0
 13 12  2  0
 16 15  1  0
 17 15  2  0
 18 17  1  0
 19 18  2  0
 20 19  1  0
 21 20  2  0
 22 21  1  0
 23 22  1  0
 24 22  2  0
A    1
C10
A    2
C11
A    3
C13
A    4
C14
A    5
N29
A    6
C28
A    7
C24
A    8
C25
A    9
C23
A   10
C27
A   11
C22
A   12
C21
A   13
C26
A   14
N12
A   15
C08
A   16
C09
A   17
C07
A   18
C06
A   19
C05
A   20
C04
A   21
C03
A   22
C02
A   23
N02
A   24
N01
M  END
>  <Id>  (72) 
5VV8_9P7_B_503

>  <ChainId>  (72) 
B

>  <AsymId>  (72) 
L

>  <SeqNum>  (72) 
503

>  <Name>  (72) 
4-(2-{[(2-aminoquinolin-7-yl)methyl]amino}ethyl)-2-methylbenzonitrile

>  <SystematicName>  (72) 
4-[2-[(2-azanylquinolin-7-yl)methylamino]ethyl]-2-methyl-benzenecarbonitrile

>  <Synonyms>  (72) 


>  <Type>  (72) 
NON-POLYMER

>  <Formula>  (72) 
C20 H20 N4

>  <ObservedFormula>  (72) 
C20 N4

>  <MolecularWeight>  (72) 
316.4

>  <ModifiedDate>  (72) 
2017-08-11

>  <Parent>  (72) 


>  <OneLetterCode>  (72) 


>  <SubcomponentList>  (72) 


>  <AmbiguousFlag>  (72) 
N

>  <InsertionCode>  (72) 


>  <InstanceId>  (72) 
5VV8_9P7_B_503

>  <ChemCompId>  (72) 
9P7

>  <PdbId>  (72) 
5VV8

>  <ResidueNumber>  (72) 
503

>  <InChI>  (72) 
InChI=1S/C20H20N4/c1-14-10-15(2-5-18(14)12-21)8-9-23-13-16-3-4-17-6-7-20(22)24-19(17)11-16/h2-7,10-11,23H,8-9,13H2,1H3,(H2,22,24)

>  <InChIKey>  (72) 
OFELXUWNGBXCPK-UHFFFAOYSA-N

>  <SMILES>  (72) 
Cc1cc(ccc1C#N)CCNCc2ccc3ccc(nc3c2)N

>  <MissingHeavyAtoms>  (72) 
0

>  <Model>  (72) 
1

>  <AltIds>  (72) 


>  <pKI>  (72) 
7.04

>  <ChemblID>  (72) 
-

>  <standardized_canonical_smiles>  (72) 
Cc1cc(CCNCc2ccc3ccc(N)nc3c2)ccc1C#N

$$$$
4CTZ_S7K_B_800
     RDKit          3D

 26 28  0  0  0  0  0  0  0  0999 V2000
    0.4950    3.9680   65.9840 C   0  0  0  0  0  0  0  0  0  0  0  0
    1.5360    3.2470   66.5690 C   0  0  0  0  0  0  0  0  0  0  0  0
    2.5350    3.9490   67.2610 C   0  0  0  0  0  0  0  0  0  0  0  0
    2.5080    5.3290   67.3330 C   0  0  0  0  0  0  0  0  0  0  0  0
    1.4530    6.0700   66.7680 C   0  0  0  0  0  0  0  0  0  0  0  0
    0.4500    5.3690   66.0790 C   0  0  0  0  0  0  0  0  0  0  0  0
    1.7710   -1.0520   65.9190 N   0  0  0  0  0  0  0  0  0  0  0  0
    2.0520   -2.3410   65.6280 C   0  0  0  0  0  0  0  0  0  0  0  0
    2.0800   -2.7500   64.2730 C   0  0  0  0  0  0  0  0  0  0  0  0
    1.8180   -1.8350   63.2220 C   0  0  0  0  0  0  0  0  0  0  0  0
    1.5350   -0.5240   63.5390 C   0  0  0  0  0  0  0  0  0  0  0  0
    1.5150   -0.1570   64.8880 C   0  0  0  0  0  0  0  0  0  0  0  0
    1.8400   -2.1800   61.7560 C   0  0  0  0  0  0  0  0  0  0  0  0
    1.2070    1.3130   65.1050 C   0  0  0  0  0  0  0  0  0  0  0  0
    1.6540    1.7480   66.4900 C   0  0  0  0  0  0  0  0  0  0  0  0
   -1.0570    9.0130   66.8760 N   0  0  0  0  0  0  0  0  0  0  0  0
   -0.6080   10.1100   67.5150 C   0  0  0  0  0  0  0  0  0  0  0  0
   -0.7460   11.2850   66.9340 N   0  0  0  0  0  0  0  0  0  0  0  0
    0.0390   10.0630   68.7830 C   0  0  0  0  0  0  0  0  0  0  0  0
    0.1320    8.8220   69.3700 C   0  0  0  0  0  0  0  0  0  0  0  0
   -0.4110    7.7220   68.7210 C   0  0  0  0  0  0  0  0  0  0  0  0
   -0.9840    7.8010   67.4460 C   0  0  0  0  0  0  0  0  0  0  0  0
    0.8280    8.6800   70.7250 C   0  0  0  0  0  0  0  0  0  0  0  0
   -1.5300    6.5890   66.7420 C   0  0  0  0  0  0  0  0  0  0  0  0
   -0.6720    6.1690   65.5370 C   0  0  0  0  0  0  0  0  0  0  0  0
   -1.4070    5.2920   64.6920 N   0  0  0  0  0  0  0  0  0  0  0  0
  2  1  2  0
  6  1  1  0
  3  2  1  0
 15  2  1  0
  4  3  2  0
  5  4  1  0
  6  5  2  0
 25  6  1  0
  8  7  2  0
 12  7  1  0
  9  8  1  0
 10  9  2  0
 11 10  1  0
 13 10  1  0
 12 11  2  0
 14 12  1  0
 15 14  1  0
 17 16  2  0
 22 16  1  0
 18 17  1  0
 19 17  1  0
 20 19  2  0
 21 20  1  0
 23 20  1  0
 22 21  2  0
 24 22  1  0
 25 24  1  0
 26 25  1  0
A    1
C1
A    2
C2
A    3
C3
A    4
C4
A    5
C5
A    6
C6
A    7
N11
A    8
C12
A    9
C13
A   10
C14
A   11
C15
A   12
C16
A   13
C17
A   14
C18
A   15
C19
A   16
N21
A   17
C22
A   18
N22
A   19
C23
A   20
C24
A   21
C25
A   22
C26
A   23
C27
A   24
C28
A   25
C29
A   26
N29
M  END
>  <Id>  (73) 
4CTZ_S7K_B_800

>  <ChainId>  (73) 
B

>  <AsymId>  (73) 
L

>  <SeqNum>  (73) 
800

>  <Name>  (73) 
(S)-6-(2-amino-2-(3-(2-(4-methylpyridin-2-yl)ethyl)phenyl)ethyl)-4-methylpyridin-2-amine

>  <SystematicName>  (73) 
6-[(2S)-2-azanyl-2-[3-[2-(4-methylpyridin-2-yl)ethyl]phenyl]ethyl]-4-methyl-pyridin-2-amine

>  <Synonyms>  (73) 


>  <Type>  (73) 
NON-POLYMER

>  <Formula>  (73) 
C22 H26 N4

>  <ObservedFormula>  (73) 
C22 N4

>  <MolecularWeight>  (73) 
346.469

>  <ModifiedDate>  (73) 
2014-05-02

>  <Parent>  (73) 


>  <OneLetterCode>  (73) 


>  <SubcomponentList>  (73) 


>  <AmbiguousFlag>  (73) 
N

>  <InsertionCode>  (73) 


>  <InstanceId>  (73) 
4CTZ_S7K_B_800

>  <ChemCompId>  (73) 
S7K

>  <PdbId>  (73) 
4CTZ

>  <ResidueNumber>  (73) 
800

>  <InChI>  (73) 
InChI=1S/C22H26N4/c1-15-8-9-25-19(10-15)7-6-17-4-3-5-18(13-17)21(23)14-20-11-16(2)12-22(24)26-20/h3-5,8-13,21H,6-7,14,23H2,1-2H3,(H2,24,26)/t21-/m0/s1

>  <InChIKey>  (73) 
NRRPWROZZNIOKD-NRFANRHFSA-N

>  <SMILES>  (73) 
Cc1ccnc(c1)CCc2cccc(c2)[C@H](Cc3cc(cc(n3)N)C)N

>  <MissingHeavyAtoms>  (73) 
0

>  <Model>  (73) 
1

>  <AltIds>  (73) 


>  <pKI>  (73) 
3.48

>  <ChemblID>  (73) 
-

>  <standardized_canonical_smiles>  (73) 
Cc1ccnc(CCc2cccc([C@@H](N)Cc3cc(C)cc(N)n3)c2)c1

$$$$
4CX1_HW9_B_800
     RDKit          3D

 27 29  0  0  0  0  0  0  0  0999 V2000
    1.8990   -0.2150   65.9430 N   0  0  0  0  0  0  0  0  0  0  0  0
    1.8880   -0.9530   64.7950 C   0  0  0  0  0  0  0  0  0  0  0  0
    1.9340   -2.3460   64.8090 C   0  0  0  0  0  0  0  0  0  0  0  0
    1.9420   -3.0390   63.5920 C   0  0  0  0  0  0  0  0  0  0  0  0
    1.8870   -2.3370   62.3830 C   0  0  0  0  0  0  0  0  0  0  0  0
    1.9650   -4.5620   63.6030 C   0  0  0  0  0  0  0  0  0  0  0  0
    1.8420   -0.3130   63.6080 N   0  0  0  0  0  0  0  0  0  0  0  0
    1.8560   -0.9440   62.4170 C   0  0  0  0  0  0  0  0  0  0  0  0
    1.7620   -0.0900   61.1580 C   0  0  0  0  0  0  0  0  0  0  0  0
    0.2560   -0.0340   60.7860 C   0  0  0  0  0  0  0  0  0  0  0  0
   -0.7410    0.4700   61.8370 C   0  0  0  0  0  0  0  0  0  0  0  0
   -2.0140    0.7170   61.0170 C   0  0  0  0  0  0  0  0  0  0  0  0
   -1.4500    1.2420   59.7830 N   0  0  0  0  0  0  0  0  0  0  0  0
   -0.0400    0.8620   59.5790 C   0  0  0  0  0  0  0  0  0  0  0  0
   -0.2910    1.7410   62.3410 O   0  0  0  0  0  0  0  0  0  0  0  0
   -0.9510    2.3180   63.4800 C   0  0  0  0  0  0  0  0  0  0  0  0
   -0.4300    3.7250   63.7670 C   0  0  0  0  0  0  0  0  0  0  0  0
   -1.3860    4.5360   64.6450 C   0  0  0  0  0  0  0  0  0  0  0  0
   -0.7040    5.8130   65.1430 C   0  0  0  0  0  0  0  0  0  0  0  0
   -1.6690    6.6390   65.9950 C   0  0  0  0  0  0  0  0  0  0  0  0
   -0.9550    7.8730   66.5370 C   0  0  0  0  0  0  0  0  0  0  0  0
   -1.0470    9.0460   65.8480 N   0  0  0  0  0  0  0  0  0  0  0  0
   -0.4390   10.1710   66.2730 C   0  0  0  0  0  0  0  0  0  0  0  0
    0.3120   10.1580   67.4550 C   0  0  0  0  0  0  0  0  0  0  0  0
    0.4350    8.9700   68.1820 C   0  0  0  0  0  0  0  0  0  0  0  0
   -0.2010    7.8070   67.7310 C   0  0  0  0  0  0  0  0  0  0  0  0
    1.2500    8.9660   69.4530 C   0  0  0  0  0  0  0  0  0  0  0  0
  2  1  1  0
  3  2  2  0
  7  2  1  0
  4  3  1  0
  5  4  2  0
  6  4  1  0
  8  5  1  0
  8  7  2  0
  9  8  1  0
 10  9  1  0
 11 10  1  0
 14 10  1  0
 12 11  1  0
 15 11  1  0
 13 12  1  0
 14 13  1  0
 16 15  1  0
 17 16  1  0
 18 17  1  0
 19 18  1  0
 20 19  1  0
 21 20  1  0
 22 21  2  0
 26 21  1  0
 23 22  1  0
 24 23  2  0
 25 24  1  0
 26 25  2  0
 27 25  1  0
A    1
N02
A    2
C02
A    3
C03
A    4
C04
A    5
C05
A    6
C07
A    7
N01
A    8
C06
A    9
C08
A   10
C4'
A   11
C3'
A   12
C2'
A   13
N1'
A   14
C5'
A   15
O09
A   16
C10
A   17
C11
A   18
C12
A   19
C13
A   20
C14
A   21
C26
A   22
N21
A   23
C22
A   24
C23
A   25
C24
A   26
C25
A   27
C27
M  END
>  <Id>  (74) 
4CX1_HW9_B_800

>  <ChainId>  (74) 
B

>  <AsymId>  (74) 
J

>  <SeqNum>  (74) 
800

>  <Name>  (74) 
4-methyl-6-{[(3R,4R)-4-{[5-(4-methylpyridin-2-yl)pentyl]oxy}pyrrolidin-3-yl]methyl}pyridin-2-amine

>  <SystematicName>  (74) 
4-methyl-6-[[(3R,4R)-4-[5-(4-methylpyridin-2-yl)pentoxy]pyrrolidin-3-yl]methyl]pyridin-2-amine

>  <Synonyms>  (74) 


>  <Type>  (74) 
NON-POLYMER

>  <Formula>  (74) 
C22 H32 N4 O

>  <ObservedFormula>  (74) 
C22 N4 O

>  <MolecularWeight>  (74) 
368.516

>  <ModifiedDate>  (74) 
2012-07-06

>  <Parent>  (74) 


>  <OneLetterCode>  (74) 


>  <SubcomponentList>  (74) 


>  <AmbiguousFlag>  (74) 
N

>  <InsertionCode>  (74) 


>  <InstanceId>  (74) 
4CX1_HW9_B_800

>  <ChemCompId>  (74) 
HW9

>  <PdbId>  (74) 
4CX1

>  <ResidueNumber>  (74) 
800

>  <InChI>  (74) 
InChI=1S/C22H32N4O/c1-16-7-8-25-19(10-16)6-4-3-5-9-27-21-15-24-14-18(21)13-20-11-17(2)12-22(23)26-20/h7-8,10-12,18,21,24H,3-6,9,13-15H2,1-2H3,(H2,23,26)/t18-,21+/m1/s1

>  <InChIKey>  (74) 
ZWYPXJQSZOXLSP-NQIIRXRSSA-N

>  <SMILES>  (74) 
Cc1ccnc(c1)CCCCCO[C@H]2CNC[C@H]2Cc3cc(cc(n3)N)C

>  <MissingHeavyAtoms>  (74) 
0

>  <Model>  (74) 
1

>  <AltIds>  (74) 


>  <pKI>  (74) 
4.34

>  <ChemblID>  (74) 
-

>  <standardized_canonical_smiles>  (74) 
Cc1ccnc(CCCCCO[C@H]2CNC[C@H]2Cc2cc(C)cc(N)n2)c1

$$$$
4CWZ_HW9_B_800
     RDKit          3D

 27 29  0  0  0  0  0  0  0  0999 V2000
    3.1080   -1.3680   65.7950 N   0  0  0  0  0  0  0  0  0  0  0  0
    2.7500   -1.6740   64.5280 C   0  0  0  0  0  0  0  0  0  0  0  0
    2.5610   -3.0160   64.2040 C   0  0  0  0  0  0  0  0  0  0  0  0
    2.1800   -3.3460   62.9100 C   0  0  0  0  0  0  0  0  0  0  0  0
    1.9880   -2.3340   61.9790 C   0  0  0  0  0  0  0  0  0  0  0  0
    1.9610   -4.7920   62.5470 C   0  0  0  0  0  0  0  0  0  0  0  0
    2.5670   -0.6960   63.5880 N   0  0  0  0  0  0  0  0  0  0  0  0
    2.1990   -1.0100   62.3380 C   0  0  0  0  0  0  0  0  0  0  0  0
    1.9590    0.0830   61.3280 C   0  0  0  0  0  0  0  0  0  0  0  0
    0.4430    0.1210   61.0270 C   0  0  0  0  0  0  0  0  0  0  0  0
   -0.4910    0.6120   62.1360 C   0  0  0  0  0  0  0  0  0  0  0  0
   -1.7970    0.7930   61.3750 C   0  0  0  0  0  0  0  0  0  0  0  0
   -1.3080    1.3960   60.1480 N   0  0  0  0  0  0  0  0  0  0  0  0
    0.0480    1.0130   59.8440 C   0  0  0  0  0  0  0  0  0  0  0  0
   -0.0870    1.8730   62.6630 O   0  0  0  0  0  0  0  0  0  0  0  0
   -0.8940    2.3990   63.7270 C   0  0  0  0  0  0  0  0  0  0  0  0
   -0.2540    3.6680   64.2560 C   0  0  0  0  0  0  0  0  0  0  0  0
   -1.2440    4.6220   64.9120 C   0  0  0  0  0  0  0  0  0  0  0  0
   -0.4530    5.7810   65.4760 C   0  0  0  0  0  0  0  0  0  0  0  0
   -1.3170    6.7240   66.2420 C   0  0  0  0  0  0  0  0  0  0  0  0
   -0.6550    7.9750   66.8070 C   0  0  0  0  0  0  0  0  0  0  0  0
   -0.8210    9.1670   66.1660 N   0  0  0  0  0  0  0  0  0  0  0  0
   -0.3240   10.2960   66.6510 C   0  0  0  0  0  0  0  0  0  0  0  0
    0.4140   10.3060   67.8360 C   0  0  0  0  0  0  0  0  0  0  0  0
    0.6080    9.1120   68.5250 C   0  0  0  0  0  0  0  0  0  0  0  0
    0.0320    7.9420   68.0190 C   0  0  0  0  0  0  0  0  0  0  0  0
    1.3730    9.1280   69.8180 C   0  0  0  0  0  0  0  0  0  0  0  0
  2  1  1  0
  3  2  2  0
  7  2  1  0
  4  3  1  0
  5  4  2  0
  6  4  1  0
  8  5  1  0
  8  7  2  0
  9  8  1  0
 10  9  1  0
 11 10  1  0
 14 10  1  0
 12 11  1  0
 15 11  1  0
 13 12  1  0
 14 13  1  0
 16 15  1  0
 17 16  1  0
 18 17  1  0
 19 18  1  0
 20 19  1  0
 21 20  1  0
 22 21  2  0
 26 21  1  0
 23 22  1  0
 24 23  2  0
 25 24  1  0
 26 25  2  0
 27 25  1  0
A    1
N02
A    2
C02
A    3
C03
A    4
C04
A    5
C05
A    6
C07
A    7
N01
A    8
C06
A    9
C08
A   10
C4'
A   11
C3'
A   12
C2'
A   13
N1'
A   14
C5'
A   15
O09
A   16
C10
A   17
C11
A   18
C12
A   19
C13
A   20
C14
A   21
C26
A   22
N21
A   23
C22
A   24
C23
A   25
C24
A   26
C25
A   27
C27
M  END
>  <Id>  (75) 
4CWZ_HW9_B_800

>  <ChainId>  (75) 
B

>  <AsymId>  (75) 
K

>  <SeqNum>  (75) 
800

>  <Name>  (75) 
4-methyl-6-{[(3R,4R)-4-{[5-(4-methylpyridin-2-yl)pentyl]oxy}pyrrolidin-3-yl]methyl}pyridin-2-amine

>  <SystematicName>  (75) 
4-methyl-6-[[(3R,4R)-4-[5-(4-methylpyridin-2-yl)pentoxy]pyrrolidin-3-yl]methyl]pyridin-2-amine

>  <Synonyms>  (75) 


>  <Type>  (75) 
NON-POLYMER

>  <Formula>  (75) 
C22 H32 N4 O

>  <ObservedFormula>  (75) 
C22 N4 O

>  <MolecularWeight>  (75) 
368.516

>  <ModifiedDate>  (75) 
2012-07-06

>  <Parent>  (75) 


>  <OneLetterCode>  (75) 


>  <SubcomponentList>  (75) 


>  <AmbiguousFlag>  (75) 
N

>  <InsertionCode>  (75) 


>  <InstanceId>  (75) 
4CWZ_HW9_B_800

>  <ChemCompId>  (75) 
HW9

>  <PdbId>  (75) 
4CWZ

>  <ResidueNumber>  (75) 
800

>  <InChI>  (75) 
InChI=1S/C22H32N4O/c1-16-7-8-25-19(10-16)6-4-3-5-9-27-21-15-24-14-18(21)13-20-11-17(2)12-22(23)26-20/h7-8,10-12,18,21,24H,3-6,9,13-15H2,1-2H3,(H2,23,26)/t18-,21+/m1/s1

>  <InChIKey>  (75) 
ZWYPXJQSZOXLSP-NQIIRXRSSA-N

>  <SMILES>  (75) 
Cc1ccnc(c1)CCCCCO[C@H]2CNC[C@H]2Cc3cc(cc(n3)N)C

>  <MissingHeavyAtoms>  (75) 
0

>  <Model>  (75) 
1

>  <AltIds>  (75) 


>  <pKI>  (75) 
4.34

>  <ChemblID>  (75) 
-

>  <standardized_canonical_smiles>  (75) 
Cc1ccnc(CCCCCO[C@H]2CNC[C@H]2Cc2cc(C)cc(N)n2)c1

$$$$
4CWW_HW9_B_800
     RDKit          3D

 27 29  0  0  0  0  0  0  0  0999 V2000
    1.9850   -0.1900   66.3700 N   0  0  0  0  0  0  0  0  0  0  0  0
    2.0020   -0.9080   65.2240 C   0  0  0  0  0  0  0  0  0  0  0  0
    2.0660   -2.2890   65.2620 C   0  0  0  0  0  0  0  0  0  0  0  0
    2.0700   -3.0190   64.0690 C   0  0  0  0  0  0  0  0  0  0  0  0
    1.9960   -2.3390   62.8370 C   0  0  0  0  0  0  0  0  0  0  0  0
    2.1600   -4.5430   64.1550 C   0  0  0  0  0  0  0  0  0  0  0  0
    1.9080   -0.2720   64.0270 N   0  0  0  0  0  0  0  0  0  0  0  0
    1.9150   -0.9430   62.8420 C   0  0  0  0  0  0  0  0  0  0  0  0
    1.8160   -0.1210   61.5780 C   0  0  0  0  0  0  0  0  0  0  0  0
    0.3530   -0.0570   61.1080 C   0  0  0  0  0  0  0  0  0  0  0  0
   -0.6500    0.4530   62.1390 C   0  0  0  0  0  0  0  0  0  0  0  0
   -1.8850    0.7630   61.2850 C   0  0  0  0  0  0  0  0  0  0  0  0
   -1.2730    1.2850   60.0570 N   0  0  0  0  0  0  0  0  0  0  0  0
    0.1430    0.9140   59.9430 C   0  0  0  0  0  0  0  0  0  0  0  0
   -0.0800    1.6660   62.6790 O   0  0  0  0  0  0  0  0  0  0  0  0
   -0.8440    2.3570   63.6940 C   0  0  0  0  0  0  0  0  0  0  0  0
   -0.1980    3.6650   64.1580 C   0  0  0  0  0  0  0  0  0  0  0  0
   -1.1680    4.5780   64.9330 C   0  0  0  0  0  0  0  0  0  0  0  0
   -0.4420    5.7850   65.5230 C   0  0  0  0  0  0  0  0  0  0  0  0
   -1.3550    6.6700   66.3700 C   0  0  0  0  0  0  0  0  0  0  0  0
   -0.6620    7.9180   66.9020 C   0  0  0  0  0  0  0  0  0  0  0  0
   -0.7800    9.0940   66.2370 N   0  0  0  0  0  0  0  0  0  0  0  0
   -0.2240   10.2320   66.6710 C   0  0  0  0  0  0  0  0  0  0  0  0
    0.5660   10.2340   67.8210 C   0  0  0  0  0  0  0  0  0  0  0  0
    0.7220    9.0310   68.5300 C   0  0  0  0  0  0  0  0  0  0  0  0
    0.0860    7.8660   68.0920 C   0  0  0  0  0  0  0  0  0  0  0  0
    1.5230    9.0240   69.7930 C   0  0  0  0  0  0  0  0  0  0  0  0
  2  1  1  0
  3  2  2  0
  7  2  1  0
  4  3  1  0
  5  4  2  0
  6  4  1  0
  8  5  1  0
  8  7  2  0
  9  8  1  0
 10  9  1  0
 11 10  1  0
 14 10  1  0
 12 11  1  0
 15 11  1  0
 13 12  1  0
 14 13  1  0
 16 15  1  0
 17 16  1  0
 18 17  1  0
 19 18  1  0
 20 19  1  0
 21 20  1  0
 22 21  2  0
 26 21  1  0
 23 22  1  0
 24 23  2  0
 25 24  1  0
 26 25  2  0
 27 25  1  0
A    1
N02
A    2
C02
A    3
C03
A    4
C04
A    5
C05
A    6
C07
A    7
N01
A    8
C06
A    9
C08
A   10
C4'
A   11
C3'
A   12
C2'
A   13
N1'
A   14
C5'
A   15
O09
A   16
C10
A   17
C11
A   18
C12
A   19
C13
A   20
C14
A   21
C26
A   22
N21
A   23
C22
A   24
C23
A   25
C24
A   26
C25
A   27
C27
M  END
>  <Id>  (76) 
4CWW_HW9_B_800

>  <ChainId>  (76) 
B

>  <AsymId>  (76) 
J

>  <SeqNum>  (76) 
800

>  <Name>  (76) 
4-methyl-6-{[(3R,4R)-4-{[5-(4-methylpyridin-2-yl)pentyl]oxy}pyrrolidin-3-yl]methyl}pyridin-2-amine

>  <SystematicName>  (76) 
4-methyl-6-[[(3R,4R)-4-[5-(4-methylpyridin-2-yl)pentoxy]pyrrolidin-3-yl]methyl]pyridin-2-amine

>  <Synonyms>  (76) 


>  <Type>  (76) 
NON-POLYMER

>  <Formula>  (76) 
C22 H32 N4 O

>  <ObservedFormula>  (76) 
C22 N4 O

>  <MolecularWeight>  (76) 
368.516

>  <ModifiedDate>  (76) 
2012-07-06

>  <Parent>  (76) 


>  <OneLetterCode>  (76) 


>  <SubcomponentList>  (76) 


>  <AmbiguousFlag>  (76) 
N

>  <InsertionCode>  (76) 


>  <InstanceId>  (76) 
4CWW_HW9_B_800

>  <ChemCompId>  (76) 
HW9

>  <PdbId>  (76) 
4CWW

>  <ResidueNumber>  (76) 
800

>  <InChI>  (76) 
InChI=1S/C22H32N4O/c1-16-7-8-25-19(10-16)6-4-3-5-9-27-21-15-24-14-18(21)13-20-11-17(2)12-22(23)26-20/h7-8,10-12,18,21,24H,3-6,9,13-15H2,1-2H3,(H2,23,26)/t18-,21+/m1/s1

>  <InChIKey>  (76) 
ZWYPXJQSZOXLSP-NQIIRXRSSA-N

>  <SMILES>  (76) 
Cc1ccnc(c1)CCCCCO[C@H]2CNC[C@H]2Cc3cc(cc(n3)N)C

>  <MissingHeavyAtoms>  (76) 
0

>  <Model>  (76) 
1

>  <AltIds>  (76) 


>  <pKI>  (76) 
4.34

>  <ChemblID>  (76) 
-

>  <standardized_canonical_smiles>  (76) 
Cc1ccnc(CCCCCO[C@H]2CNC[C@H]2Cc2cc(C)cc(N)n2)c1

$$$$
5VV9_9OG_B_503
     RDKit          3D

 24 26  0  0  0  0  0  0  0  0999 V2000
   -0.4250    2.4330   63.0710 C   0  0  0  0  0  0  0  0  0  0  0  0
   -0.7380    4.6000   64.0430 C   0  0  0  0  0  0  0  0  0  0  0  0
    1.7480    8.4100   68.8840 C   0  0  0  0  0  0  0  0  0  0  0  0
   -0.3620    7.9280   65.7910 C   0  0  0  0  0  0  0  0  0  0  0  0
    0.0410    2.2320   61.6380 C   0  0  0  0  0  0  0  0  0  0  0  0
    0.4050   -4.3950   60.4710 N   0  0  0  0  0  0  0  0  0  0  0  0
    0.3550   -3.2540   60.6630 C   0  0  0  0  0  0  0  0  0  0  0  0
    0.2700   -1.9900   60.9050 C   0  0  0  0  0  0  0  0  0  0  0  0
    1.3710   -1.3060   61.4220 C   0  0  0  0  0  0  0  0  0  0  0  0
    1.2870    0.0550   61.6490 C   0  0  0  0  0  0  0  0  0  0  0  0
   -0.9080   -1.3020   60.6090 C   0  0  0  0  0  0  0  0  0  0  0  0
   -0.9910    0.0700   60.8470 C   0  0  0  0  0  0  0  0  0  0  0  0
    0.1120    0.7460   61.3700 C   0  0  0  0  0  0  0  0  0  0  0  0
    0.2670    3.5810   63.6960 N   0  0  0  0  0  0  0  0  0  0  0  0
   -0.2670    5.6310   65.0500 C   0  0  0  0  0  0  0  0  0  0  0  0
    0.5820    5.3340   66.1160 C   0  0  0  0  0  0  0  0  0  0  0  0
   -0.7390    6.9270   64.9050 C   0  0  0  0  0  0  0  0  0  0  0  0
    0.4830    7.6370   66.8500 C   0  0  0  0  0  0  0  0  0  0  0  0
    0.9640    6.3420   67.0030 C   0  0  0  0  0  0  0  0  0  0  0  0
   -0.8410    9.1800   65.6100 N   0  0  0  0  0  0  0  0  0  0  0  0
   -0.5180   10.1930   66.4320 C   0  0  0  0  0  0  0  0  0  0  0  0
   -1.0300   11.4270   66.2020 N   0  0  0  0  0  0  0  0  0  0  0  0
    0.3320    9.9420   67.5050 C   0  0  0  0  0  0  0  0  0  0  0  0
    0.8330    8.6600   67.7230 C   0  0  0  0  0  0  0  0  0  0  0  0
  5  1  1  0
 14  1  1  0
 14  2  1  0
 15  2  1  0
 24  3  1  0
 17  4  2  0
 18  4  1  0
 20  4  1  0
 13  5  1  0
  7  6  3  0
  8  7  1  0
  9  8  2  0
 11  8  1  0
 10  9  1  0
 13 10  2  0
 12 11  2  0
 13 12  1  0
 16 15  2  0
 17 15  1  0
 19 16  1  0
 19 18  2  0
 24 18  1  0
 21 20  2  0
 22 21  1  0
 23 21  1  0
 24 23  2  0
A    1
C14
A    2
C12
A    3
C11
A    4
C10
A    5
C15
A    6
N28
A    7
C27
A    8
C24
A    9
C23
A   10
C22
A   11
C25
A   12
C26
A   13
C21
A   14
N13
A   15
C08
A   16
C07
A   17
C09
A   18
C05
A   19
C06
A   20
N01
A   21
C02
A   22
N02
A   23
C03
A   24
C04
M  END
>  <Id>  (77) 
5VV9_9OG_B_503

>  <ChainId>  (77) 
B

>  <AsymId>  (77) 
I

>  <SeqNum>  (77) 
503

>  <Name>  (77) 
4-(2-{[(2-amino-4-methylquinolin-7-yl)methyl]amino}ethyl)benzonitrile

>  <SystematicName>  (77) 
4-[2-[(2-azanyl-4-methyl-quinolin-7-yl)methylamino]ethyl]benzenecarbonitrile

>  <Synonyms>  (77) 


>  <Type>  (77) 
NON-POLYMER

>  <Formula>  (77) 
C20 H20 N4

>  <ObservedFormula>  (77) 
C20 N4

>  <MolecularWeight>  (77) 
316.4

>  <ModifiedDate>  (77) 
2017-08-11

>  <Parent>  (77) 


>  <OneLetterCode>  (77) 


>  <SubcomponentList>  (77) 


>  <AmbiguousFlag>  (77) 
N

>  <InsertionCode>  (77) 


>  <InstanceId>  (77) 
5VV9_9OG_B_503

>  <ChemCompId>  (77) 
9OG

>  <PdbId>  (77) 
5VV9

>  <ResidueNumber>  (77) 
503

>  <InChI>  (77) 
InChI=1S/C20H20N4/c1-14-10-20(22)24-19-11-17(6-7-18(14)19)13-23-9-8-15-2-4-16(12-21)5-3-15/h2-7,10-11,23H,8-9,13H2,1H3,(H2,22,24)

>  <InChIKey>  (77) 
CNMLPDIDKJDXOA-UHFFFAOYSA-N

>  <SMILES>  (77) 
Cc1cc(nc2c1ccc(c2)CNCCc3ccc(cc3)C#N)N

>  <MissingHeavyAtoms>  (77) 
0

>  <Model>  (77) 
1

>  <AltIds>  (77) 


>  <pKI>  (77) 
5.91

>  <ChemblID>  (77) 
-

>  <standardized_canonical_smiles>  (77) 
Cc1cc(N)nc2cc(CNCCc3ccc(C#N)cc3)ccc12

$$$$
4CWV_HW8_B_800
     RDKit          3D

 26 28  0  0  0  0  0  0  0  0999 V2000
    2.2780   -0.4860   66.2970 N   0  0  0  0  0  0  0  0  0  0  0  0
    2.2430   -1.2220   65.1640 C   0  0  0  0  0  0  0  0  0  0  0  0
    2.2600   -2.6170   65.1660 C   0  0  0  0  0  0  0  0  0  0  0  0
    2.1870   -3.2940   63.9300 C   0  0  0  0  0  0  0  0  0  0  0  0
    2.1790   -4.8070   63.9300 C   0  0  0  0  0  0  0  0  0  0  0  0
    2.1240   -2.5670   62.7210 C   0  0  0  0  0  0  0  0  0  0  0  0
    2.1230   -1.1650   62.7860 C   0  0  0  0  0  0  0  0  0  0  0  0
    2.1790   -0.5550   63.9850 N   0  0  0  0  0  0  0  0  0  0  0  0
    2.0170   -0.2570   61.5790 C   0  0  0  0  0  0  0  0  0  0  0  0
    0.5190   -0.0300   61.2790 C   0  0  0  0  0  0  0  0  0  0  0  0
    0.2360    0.9590   60.1530 C   0  0  0  0  0  0  0  0  0  0  0  0
   -1.1790    1.2480   60.3600 N   0  0  0  0  0  0  0  0  0  0  0  0
   -0.3790    0.4920   62.4060 C   0  0  0  0  0  0  0  0  0  0  0  0
   -1.6760    0.7950   61.6550 C   0  0  0  0  0  0  0  0  0  0  0  0
    0.1540    1.7310   62.9390 O   0  0  0  0  0  0  0  0  0  0  0  0
   -0.7880    2.5420   63.6570 C   0  0  0  0  0  0  0  0  0  0  0  0
   -0.0100    3.5220   64.5190 C   0  0  0  0  0  0  0  0  0  0  0  0
   -0.8720    4.7080   64.9020 C   0  0  0  0  0  0  0  0  0  0  0  0
   -0.0550    5.7870   65.5900 C   0  0  0  0  0  0  0  0  0  0  0  0
   -1.0110    6.8400   66.1590 C   0  0  0  0  0  0  0  0  0  0  0  0
   -0.3260    8.0400   66.7800 C   0  0  0  0  0  0  0  0  0  0  0  0
   -0.6500    9.2890   66.3390 N   0  0  0  0  0  0  0  0  0  0  0  0
   -0.0710   10.3670   66.8810 C   0  0  0  0  0  0  0  0  0  0  0  0
    0.8890   10.2350   67.9120 C   0  0  0  0  0  0  0  0  0  0  0  0
    1.2380    8.9780   68.4020 C   0  0  0  0  0  0  0  0  0  0  0  0
    0.6100    7.8680   67.8240 C   0  0  0  0  0  0  0  0  0  0  0  0
  2  1  1  0
  3  2  2  0
  8  2  1  0
  4  3  1  0
  5  4  1  0
  6  4  2  0
  7  6  1  0
  8  7  2  0
  9  7  1  0
 10  9  1  0
 11 10  1  0
 13 10  1  0
 12 11  1  0
 14 12  1  0
 14 13  1  0
 15 13  1  0
 16 15  1  0
 17 16  1  0
 18 17  1  0
 19 18  1  0
 20 19  1  0
 21 20  1  0
 22 21  2  0
 26 21  1  0
 23 22  1  0
 24 23  2  0
 25 24  1  0
 26 25  2  0
A    1
N02
A    2
C02
A    3
C03
A    4
C04
A    5
C07
A    6
C05
A    7
C06
A    8
N01
A    9
C08
A   10
C4'
A   11
C5'
A   12
N1'
A   13
C3'
A   14
C2'
A   15
O09
A   16
C10
A   17
C11
A   18
C12
A   19
C13
A   20
C14
A   21
C26
A   22
N21
A   23
C22
A   24
C23
A   25
C24
A   26
C25
M  END
>  <Id>  (78) 
4CWV_HW8_B_800

>  <ChainId>  (78) 
B

>  <AsymId>  (78) 
J

>  <SeqNum>  (78) 
800

>  <Name>  (78) 
4-methyl-6-{[(3R,4R)-4-{[5-(pyridin-2-yl)pentyl]oxy}pyrrolidin-3-yl]methyl}pyridin-2-amine

>  <SystematicName>  (78) 
4-methyl-6-[[(3R,4R)-4-(5-pyridin-2-ylpentoxy)pyrrolidin-3-yl]methyl]pyridin-2-amine

>  <Synonyms>  (78) 


>  <Type>  (78) 
NON-POLYMER

>  <Formula>  (78) 
C21 H30 N4 O

>  <ObservedFormula>  (78) 
C21 N4 O

>  <MolecularWeight>  (78) 
354.489

>  <ModifiedDate>  (78) 
2012-07-06

>  <Parent>  (78) 


>  <OneLetterCode>  (78) 


>  <SubcomponentList>  (78) 


>  <AmbiguousFlag>  (78) 
N

>  <InsertionCode>  (78) 


>  <InstanceId>  (78) 
4CWV_HW8_B_800

>  <ChemCompId>  (78) 
HW8

>  <PdbId>  (78) 
4CWV

>  <ResidueNumber>  (78) 
800

>  <InChI>  (78) 
InChI=1S/C21H30N4O/c1-16-11-19(25-21(22)12-16)13-17-14-23-15-20(17)26-10-6-2-3-7-18-8-4-5-9-24-18/h4-5,8-9,11-12,17,20,23H,2-3,6-7,10,13-15H2,1H3,(H2,22,25)/t17-,20+/m1/s1

>  <InChIKey>  (78) 
CSFKTRORRCGDRY-XLIONFOSSA-N

>  <SMILES>  (78) 
Cc1cc(nc(c1)N)C[C@@H]2CNC[C@@H]2OCCCCCc3ccccn3

>  <MissingHeavyAtoms>  (78) 
0

>  <Model>  (78) 
1

>  <AltIds>  (78) 


>  <pKI>  (78) 
3.83

>  <ChemblID>  (78) 
-

>  <standardized_canonical_smiles>  (78) 
Cc1cc(N)nc(C[C@@H]2CNC[C@@H]2OCCCCCc2ccccn2)c1

$$$$
4CWX_HW0_B_800
     RDKit          3D

 27 29  0  0  0  0  0  0  0  0999 V2000
   -0.4940   11.2130   66.4080 N   0  0  0  0  0  0  0  0  0  0  0  0
   -0.1580   10.0420   66.9940 C   0  0  0  0  0  0  0  0  0  0  0  0
    0.6860   10.0160   68.1270 C   0  0  0  0  0  0  0  0  0  0  0  0
    1.0220    8.8000   68.7340 C   0  0  0  0  0  0  0  0  0  0  0  0
    0.4660    7.6260   68.1800 C   0  0  0  0  0  0  0  0  0  0  0  0
   -0.6490    8.8930   66.4670 N   0  0  0  0  0  0  0  0  0  0  0  0
   -0.3680    7.6880   67.0440 C   0  0  0  0  0  0  0  0  0  0  0  0
   -0.9980    6.4220   66.4660 C   0  0  0  0  0  0  0  0  0  0  0  0
   -0.2420    5.6950   65.3750 C   0  0  0  0  0  0  0  0  0  0  0  0
   -1.0700    4.4900   64.9310 C   0  0  0  0  0  0  0  0  0  0  0  0
   -0.1620    3.4610   64.2610 C   0  0  0  0  0  0  0  0  0  0  0  0
   -0.8840    2.2140   63.7640 C   0  0  0  0  0  0  0  0  0  0  0  0
   -0.0870    1.6020   62.7280 O   0  0  0  0  0  0  0  0  0  0  0  0
   -0.6390    0.3860   62.1640 C   0  0  0  0  0  0  0  0  0  0  0  0
   -1.8880    0.7040   61.3440 C   0  0  0  0  0  0  0  0  0  0  0  0
   -1.3010    1.1910   60.1110 N   0  0  0  0  0  0  0  0  0  0  0  0
    0.0800    0.7620   59.9080 C   0  0  0  0  0  0  0  0  0  0  0  0
    0.3090   -0.1700   61.0980 C   0  0  0  0  0  0  0  0  0  0  0  0
    1.7870   -0.2740   61.4860 C   0  0  0  0  0  0  0  0  0  0  0  0
    1.9190   -1.1370   62.7190 C   0  0  0  0  0  0  0  0  0  0  0  0
    1.8860   -0.5170   63.9210 N   0  0  0  0  0  0  0  0  0  0  0  0
    1.9980   -1.1890   65.0960 C   0  0  0  0  0  0  0  0  0  0  0  0
    1.9690   -0.4930   66.2690 N   0  0  0  0  0  0  0  0  0  0  0  0
    2.1310   -2.5810   65.0710 C   0  0  0  0  0  0  0  0  0  0  0  0
    2.1610   -3.2610   63.8470 C   0  0  0  0  0  0  0  0  0  0  0  0
    2.0490   -2.5320   62.6520 C   0  0  0  0  0  0  0  0  0  0  0  0
    2.3040   -4.7750   63.8370 C   0  0  0  0  0  0  0  0  0  0  0  0
  2  1  1  0
  3  2  2  0
  6  2  1  0
  4  3  1  0
  5  4  2  0
  7  5  1  0
  7  6  2  0
  8  7  1  0
  9  8  1  0
 10  9  1  0
 11 10  1  0
 12 11  1  0
 13 12  1  0
 14 13  1  0
 15 14  1  0
 18 14  1  0
 16 15  1  0
 17 16  1  0
 18 17  1  0
 19 18  1  0
 20 19  1  0
 21 20  2  0
 26 20  1  0
 22 21  1  0
 23 22  1  0
 24 22  2  0
 25 24  1  0
 26 25  2  0
 27 25  1  0
A    1
N22
A    2
C22
A    3
C23
A    4
C24
A    5
C25
A    6
N21
A    7
C26
A    8
C14
A    9
C13
A   10
C12
A   11
C11
A   12
C10
A   13
O09
A   14
C4'
A   15
C5'
A   16
N1'
A   17
C2'
A   18
C3'
A   19
C08
A   20
C06
A   21
N01
A   22
C02
A   23
N02
A   24
C03
A   25
C04
A   26
C05
A   27
C07
M  END
>  <Id>  (79) 
4CWX_HW0_B_800

>  <ChainId>  (79) 
B

>  <AsymId>  (79) 
K

>  <SeqNum>  (79) 
800

>  <Name>  (79) 
6-{[(3R,4R)-4-{[5-(6-aminopyridin-2-yl)pentyl]oxy}pyrrolidin-3-yl]methyl}-4-methylpyridin-2-amine

>  <SystematicName>  (79) 
6-[[(3R,4R)-4-[5-(6-azanylpyridin-2-yl)pentoxy]pyrrolidin-3-yl]methyl]-4-methyl-pyridin-2-amine

>  <Synonyms>  (79) 


>  <Type>  (79) 
NON-POLYMER

>  <Formula>  (79) 
C21 H31 N5 O

>  <ObservedFormula>  (79) 
C21 N5 O

>  <MolecularWeight>  (79) 
369.504

>  <ModifiedDate>  (79) 
2012-07-06

>  <Parent>  (79) 


>  <OneLetterCode>  (79) 


>  <SubcomponentList>  (79) 


>  <AmbiguousFlag>  (79) 
N

>  <InsertionCode>  (79) 


>  <InstanceId>  (79) 
4CWX_HW0_B_800

>  <ChemCompId>  (79) 
HW0

>  <PdbId>  (79) 
4CWX

>  <ResidueNumber>  (79) 
800

>  <InChI>  (79) 
InChI=1S/C21H31N5O/c1-15-10-18(26-21(23)11-15)12-16-13-24-14-19(16)27-9-4-2-3-6-17-7-5-8-20(22)25-17/h5,7-8,10-11,16,19,24H,2-4,6,9,12-14H2,1H3,(H2,22,25)(H2,23,26)/t16-,19+/m1/s1

>  <InChIKey>  (79) 
ISEYRPTZYRJQPZ-APWZRJJASA-N

>  <SMILES>  (79) 
Cc1cc(nc(c1)N)C[C@@H]2CNC[C@@H]2OCCCCCc3cccc(n3)N

>  <MissingHeavyAtoms>  (79) 
0

>  <Model>  (79) 
1

>  <AltIds>  (79) 


>  <pKI>  (79) 
4.47

>  <ChemblID>  (79) 
-

>  <standardized_canonical_smiles>  (79) 
Cc1cc(N)nc(C[C@@H]2CNC[C@@H]2OCCCCCc2cccc(N)n2)c1

$$$$
4CWY_HW1_B_800
     RDKit          3D

 28 30  0  0  0  0  0  0  0  0999 V2000
    1.8080   -0.5380   66.2090 N   0  0  0  0  0  0  0  0  0  0  0  0
    1.8870   -1.2460   65.0500 C   0  0  0  0  0  0  0  0  0  0  0  0
    2.0300   -2.6390   65.0370 C   0  0  0  0  0  0  0  0  0  0  0  0
    2.1090   -3.3130   63.8070 C   0  0  0  0  0  0  0  0  0  0  0  0
    2.2680   -4.8230   63.7960 C   0  0  0  0  0  0  0  0  0  0  0  0
    2.0390   -2.5830   62.6070 C   0  0  0  0  0  0  0  0  0  0  0  0
    1.8220   -0.5740   63.8710 N   0  0  0  0  0  0  0  0  0  0  0  0
    1.9030   -1.1870   62.6670 C   0  0  0  0  0  0  0  0  0  0  0  0
    1.8030   -0.3100   61.4320 C   0  0  0  0  0  0  0  0  0  0  0  0
    0.3190   -0.1560   61.0460 C   0  0  0  0  0  0  0  0  0  0  0  0
    0.0710    0.8300   59.9030 C   0  0  0  0  0  0  0  0  0  0  0  0
   -1.3230    1.1920   60.1150 N   0  0  0  0  0  0  0  0  0  0  0  0
   -1.9130    0.6260   61.3110 C   0  0  0  0  0  0  0  0  0  0  0  0
   -0.6510    0.3370   62.1210 C   0  0  0  0  0  0  0  0  0  0  0  0
   -0.1390    1.5570   62.6900 O   0  0  0  0  0  0  0  0  0  0  0  0
   -1.0620    2.3190   63.4820 C   0  0  0  0  0  0  0  0  0  0  0  0
   -0.2670    3.3130   64.3080 C   0  0  0  0  0  0  0  0  0  0  0  0
   -1.1150    4.4650   64.8120 C   0  0  0  0  0  0  0  0  0  0  0  0
   -0.2220    5.5600   65.3950 C   0  0  0  0  0  0  0  0  0  0  0  0
   -1.1130    6.4150   66.2560 C   0  0  0  0  0  0  0  0  0  0  0  0
   -0.5270    7.6730   66.8870 C   0  0  0  0  0  0  0  0  0  0  0  0
   -0.7720    8.8920   66.3250 N   0  0  0  0  0  0  0  0  0  0  0  0
   -0.3350   10.0430   66.9000 C   0  0  0  0  0  0  0  0  0  0  0  0
   -0.6310   11.2170   66.3080 N   0  0  0  0  0  0  0  0  0  0  0  0
    0.4210   10.0070   68.0850 C   0  0  0  0  0  0  0  0  0  0  0  0
    0.7100    8.7540   68.6520 C   0  0  0  0  0  0  0  0  0  0  0  0
    0.2170    7.5820   68.0690 C   0  0  0  0  0  0  0  0  0  0  0  0
    1.5140    8.6440   69.9070 C   0  0  0  0  0  0  0  0  0  0  0  0
  2  1  1  0
  3  2  2  0
  7  2  1  0
  4  3  1  0
  5  4  1  0
  6  4  2  0
  8  6  1  0
  8  7  2  0
  9  8  1  0
 10  9  1  0
 11 10  1  0
 14 10  1  0
 12 11  1  0
 13 12  1  0
 14 13  1  0
 15 14  1  0
 16 15  1  0
 17 16  1  0
 18 17  1  0
 19 18  1  0
 20 19  1  0
 21 20  1  0
 22 21  2  0
 27 21  1  0
 23 22  1  0
 24 23  1  0
 25 23  2  0
 26 25  1  0
 27 26  2  0
 28 26  1  0
A    1
N02
A    2
C02
A    3
C03
A    4
C04
A    5
C07
A    6
C05
A    7
N01
A    8
C06
A    9
C08
A   10
C3'
A   11
C2'
A   12
N1'
A   13
C5'
A   14
C4'
A   15
O09
A   16
C10
A   17
C11
A   18
C12
A   19
C13
A   20
C14
A   21
C26
A   22
N21
A   23
C22
A   24
N22
A   25
C23
A   26
C24
A   27
C25
A   28
C27
M  END
>  <Id>  (80) 
4CWY_HW1_B_800

>  <ChainId>  (80) 
B

>  <AsymId>  (80) 
J

>  <SeqNum>  (80) 
800

>  <Name>  (80) 
6-[5-({(3R,4R)-4-[(6-amino-4-methylpyridin-2-yl)methyl]pyrrolidin-3-yl}oxy)pentyl]-4-methylpyridin-2-amine

>  <SystematicName>  (80) 
6-[5-[(3R,4R)-4-[(6-azanyl-4-methyl-pyridin-2-yl)methyl]pyrrolidin-3-yl]oxypentyl]-4-methyl-pyridin-2-amine

>  <Synonyms>  (80) 


>  <Type>  (80) 
NON-POLYMER

>  <Formula>  (80) 
C22 H33 N5 O

>  <ObservedFormula>  (80) 
C22 N5 O

>  <MolecularWeight>  (80) 
383.53

>  <ModifiedDate>  (80) 
2012-07-06

>  <Parent>  (80) 


>  <OneLetterCode>  (80) 


>  <SubcomponentList>  (80) 


>  <AmbiguousFlag>  (80) 
N

>  <InsertionCode>  (80) 


>  <InstanceId>  (80) 
4CWY_HW1_B_800

>  <ChemCompId>  (80) 
HW1

>  <PdbId>  (80) 
4CWY

>  <ResidueNumber>  (80) 
800

>  <InChI>  (80) 
InChI=1S/C22H33N5O/c1-15-8-18(26-21(23)10-15)6-4-3-5-7-28-20-14-25-13-17(20)12-19-9-16(2)11-22(24)27-19/h8-11,17,20,25H,3-7,12-14H2,1-2H3,(H2,23,26)(H2,24,27)/t17-,20+/m1/s1

>  <InChIKey>  (80) 
WKAYHKZPKWNKSL-XLIONFOSSA-N

>  <SMILES>  (80) 
Cc1cc(nc(c1)N)CCCCCO[C@H]2CNC[C@H]2Cc3cc(cc(n3)N)C

>  <MissingHeavyAtoms>  (80) 
0

>  <Model>  (80) 
1

>  <AltIds>  (80) 


>  <pKI>  (80) 
4.58

>  <ChemblID>  (80) 
-

>  <standardized_canonical_smiles>  (80) 
Cc1cc(N)nc(CCCCCO[C@H]2CNC[C@H]2Cc2cc(C)cc(N)n2)c1

$$$$
4CX2_HW1_B_800
     RDKit          3D

 28 30  0  0  0  0  0  0  0  0999 V2000
    1.8060   -0.2210   66.2830 N   0  0  0  0  0  0  0  0  0  0  0  0
    1.8510   -0.9670   65.1330 C   0  0  0  0  0  0  0  0  0  0  0  0
    1.9340   -2.3610   65.1550 C   0  0  0  0  0  0  0  0  0  0  0  0
    1.9840   -3.0720   63.9470 C   0  0  0  0  0  0  0  0  0  0  0  0
    2.0770   -4.5810   63.9730 C   0  0  0  0  0  0  0  0  0  0  0  0
    1.9260   -2.3790   62.7260 C   0  0  0  0  0  0  0  0  0  0  0  0
    1.7910   -0.3320   63.9330 N   0  0  0  0  0  0  0  0  0  0  0  0
    1.8500   -0.9880   62.7430 C   0  0  0  0  0  0  0  0  0  0  0  0
    1.7710   -0.1610   61.4750 C   0  0  0  0  0  0  0  0  0  0  0  0
    0.2910   -0.0630   61.0350 C   0  0  0  0  0  0  0  0  0  0  0  0
    0.0970    0.8860   59.8440 C   0  0  0  0  0  0  0  0  0  0  0  0
   -1.2790    1.3490   60.0070 N   0  0  0  0  0  0  0  0  0  0  0  0
   -1.9410    0.7970   61.1840 C   0  0  0  0  0  0  0  0  0  0  0  0
   -0.7180    0.4740   62.0530 C   0  0  0  0  0  0  0  0  0  0  0  0
   -0.2120    1.6970   62.6000 O   0  0  0  0  0  0  0  0  0  0  0  0
   -0.8820    2.2560   63.7510 C   0  0  0  0  0  0  0  0  0  0  0  0
   -0.2980    3.6450   64.0340 C   0  0  0  0  0  0  0  0  0  0  0  0
   -1.2060    4.5590   64.8600 C   0  0  0  0  0  0  0  0  0  0  0  0
   -0.4470    5.7510   65.4450 C   0  0  0  0  0  0  0  0  0  0  0  0
   -1.3780    6.5680   66.3330 C   0  0  0  0  0  0  0  0  0  0  0  0
   -0.7270    7.7890   66.9610 C   0  0  0  0  0  0  0  0  0  0  0  0
   -0.9390    9.0130   66.4020 N   0  0  0  0  0  0  0  0  0  0  0  0
   -0.4160   10.1440   66.9290 C   0  0  0  0  0  0  0  0  0  0  0  0
   -0.6760   11.3380   66.3490 N   0  0  0  0  0  0  0  0  0  0  0  0
    0.3740   10.0920   68.0790 C   0  0  0  0  0  0  0  0  0  0  0  0
    0.6060    8.8550   68.6720 C   0  0  0  0  0  0  0  0  0  0  0  0
    0.0470    7.6880   68.1210 C   0  0  0  0  0  0  0  0  0  0  0  0
    1.4570    8.7970   69.9100 C   0  0  0  0  0  0  0  0  0  0  0  0
  2  1  1  0
  3  2  2  0
  7  2  1  0
  4  3  1  0
  5  4  1  0
  6  4  2  0
  8  6  1  0
  8  7  2  0
  9  8  1  0
 10  9  1  0
 11 10  1  0
 14 10  1  0
 12 11  1  0
 13 12  1  0
 14 13  1  0
 15 14  1  0
 16 15  1  0
 17 16  1  0
 18 17  1  0
 19 18  1  0
 20 19  1  0
 21 20  1  0
 22 21  2  0
 27 21  1  0
 23 22  1  0
 24 23  1  0
 25 23  2  0
 26 25  1  0
 27 26  2  0
 28 26  1  0
A    1
N02
A    2
C02
A    3
C03
A    4
C04
A    5
C07
A    6
C05
A    7
N01
A    8
C06
A    9
C08
A   10
C3'
A   11
C2'
A   12
N1'
A   13
C5'
A   14
C4'
A   15
O09
A   16
C10
A   17
C11
A   18
C12
A   19
C13
A   20
C14
A   21
C26
A   22
N21
A   23
C22
A   24
N22
A   25
C23
A   26
C24
A   27
C25
A   28
C27
M  END
>  <Id>  (81) 
4CX2_HW1_B_800

>  <ChainId>  (81) 
B

>  <AsymId>  (81) 
J

>  <SeqNum>  (81) 
800

>  <Name>  (81) 
6-[5-({(3R,4R)-4-[(6-amino-4-methylpyridin-2-yl)methyl]pyrrolidin-3-yl}oxy)pentyl]-4-methylpyridin-2-amine

>  <SystematicName>  (81) 
6-[5-[(3R,4R)-4-[(6-azanyl-4-methyl-pyridin-2-yl)methyl]pyrrolidin-3-yl]oxypentyl]-4-methyl-pyridin-2-amine

>  <Synonyms>  (81) 


>  <Type>  (81) 
NON-POLYMER

>  <Formula>  (81) 
C22 H33 N5 O

>  <ObservedFormula>  (81) 
C22 N5 O

>  <MolecularWeight>  (81) 
383.53

>  <ModifiedDate>  (81) 
2012-07-06

>  <Parent>  (81) 


>  <OneLetterCode>  (81) 


>  <SubcomponentList>  (81) 


>  <AmbiguousFlag>  (81) 
N

>  <InsertionCode>  (81) 


>  <InstanceId>  (81) 
4CX2_HW1_B_800

>  <ChemCompId>  (81) 
HW1

>  <PdbId>  (81) 
4CX2

>  <ResidueNumber>  (81) 
800

>  <InChI>  (81) 
InChI=1S/C22H33N5O/c1-15-8-18(26-21(23)10-15)6-4-3-5-7-28-20-14-25-13-17(20)12-19-9-16(2)11-22(24)27-19/h8-11,17,20,25H,3-7,12-14H2,1-2H3,(H2,23,26)(H2,24,27)/t17-,20+/m1/s1

>  <InChIKey>  (81) 
WKAYHKZPKWNKSL-XLIONFOSSA-N

>  <SMILES>  (81) 
Cc1cc(nc(c1)N)CCCCCO[C@H]2CNC[C@H]2Cc3cc(cc(n3)N)C

>  <MissingHeavyAtoms>  (81) 
0

>  <Model>  (81) 
1

>  <AltIds>  (81) 


>  <pKI>  (81) 
4.58

>  <ChemblID>  (81) 
-

>  <standardized_canonical_smiles>  (81) 
Cc1cc(N)nc(CCCCCO[C@H]2CNC[C@H]2Cc2cc(C)cc(N)n2)c1

$$$$
1ED4_IPU_A_2840
     RDKit          3D

  7  6  0  0  0  0  0  0  0  0999 V2000
    0.5090    1.7290   53.0290 C   0  0  0  0  0  0  0  0  0  0  0  0
    1.8470    2.4880   53.0720 C   0  0  0  0  0  0  0  0  0  0  0  0
    2.9740    1.4820   52.7920 C   0  0  0  0  0  0  0  0  0  0  0  0
    2.7040    4.8670   54.4980 C   0  0  0  0  0  0  0  0  0  0  0  0
    2.0610    3.2500   54.7110 S   0  0  0  0  0  0  0  0  0  0  0  0
    3.3770    5.1670   53.4480 N   0  0  0  0  0  0  0  0  0  0  0  0
    2.5360    5.8630   55.4770 N   0  0  0  0  0  0  0  0  0  0  0  0
  2  1  1  0
  3  2  1  0
  5  2  1  0
  5  4  1  0
  6  4  2  0
  7  4  1  0
A    1
C1
A    2
C2
A    3
C3
A    4
C
A    5
S
A    6
N1
A    7
N2
M  END
>  <Id>  (82) 
1ED4_IPU_A_2840

>  <ChainId>  (82) 
A

>  <AsymId>  (82) 
I

>  <SeqNum>  (82) 
2840

>  <Name>  (82) 
S-ISOPROPYL-ISOTHIOUREA

>  <SystematicName>  (82) 
propan-2-ylsulfanylmethanimidamide

>  <Synonyms>  (82) 


>  <Type>  (82) 
NON-POLYMER

>  <Formula>  (82) 
C4 H10 N2 S

>  <ObservedFormula>  (82) 
C4 S N2

>  <MolecularWeight>  (82) 
118.201

>  <ModifiedDate>  (82) 
2011-06-04

>  <Parent>  (82) 


>  <OneLetterCode>  (82) 


>  <SubcomponentList>  (82) 


>  <AmbiguousFlag>  (82) 
N

>  <InsertionCode>  (82) 


>  <InstanceId>  (82) 
1ED4_IPU_A_2840

>  <ChemCompId>  (82) 
IPU

>  <PdbId>  (82) 
1ED4

>  <ResidueNumber>  (82) 
2840

>  <InChI>  (82) 
InChI=1S/C4H10N2S/c1-3(2)7-4(5)6/h3H,1-2H3,(H3,5,6)

>  <InChIKey>  (82) 
XSSNABKEYXKKMK-UHFFFAOYSA-N

>  <SMILES>  (82) 
CC(C)SC(=N)N

>  <MissingHeavyAtoms>  (82) 
0

>  <Model>  (82) 
1

>  <AltIds>  (82) 


>  <pKI>  (82) 
7.66

>  <ChemblID>  (82) 
-

>  <standardized_canonical_smiles>  (82) 
CC(C)SC(=N)N

$$$$
1FOI_14W_B_810
     RDKit          3D

 11 11  0  0  0  0  0  0  0  0999 V2000
    1.1830    5.8970   64.9480 C   0  0  0  0  0  0  0  0  0  0  0  0
    0.6610    4.7510   64.2970 C   0  0  0  0  0  0  0  0  0  0  0  0
   -0.7310    4.4990   64.3210 C   0  0  0  0  0  0  0  0  0  0  0  0
   -1.6080    5.3900   64.9920 C   0  0  0  0  0  0  0  0  0  0  0  0
   -1.0900    6.5440   65.6460 C   0  0  0  0  0  0  0  0  0  0  0  0
    0.3140    6.8030   65.6260 C   0  0  0  0  0  0  0  0  0  0  0  0
    0.8860    8.0350   66.3260 C   0  0  0  0  0  0  0  0  0  0  0  0
    0.2340    9.3250   65.9470 N   0  0  0  0  0  0  0  0  0  0  0  0
    0.0860   10.3990   66.7830 C   0  0  0  0  0  0  0  0  0  0  0  0
    0.5720   10.4520   68.2340 C   0  0  0  0  0  0  0  0  0  0  0  0
   -0.5200   11.4490   66.2340 N   0  0  0  0  0  0  0  0  0  0  0  0
  2  1  2  0
  6  1  1  0
  3  2  1  0
  4  3  2  0
  5  4  1  0
  6  5  2  0
  7  6  1  0
  8  7  1  0
  9  8  1  0
 10  9  1  0
 11  9  2  0
A    1
C2
A    2
C3
A    3
C4
A    4
C5
A    5
C6
A    6
C1
A    7
C7
A    8
N8
A    9
C9
A   10
C10
A   11
N11
M  END
>  <Id>  (83) 
1FOI_14W_B_810

>  <ChainId>  (83) 
B

>  <AsymId>  (83) 
L

>  <SeqNum>  (83) 
810

>  <Name>  (83) 
N-(3-(AMINOMETHYL)BENZYL)ACETAMIDINE

>  <SystematicName>  (83) 
N-[[3-(aminomethyl)phenyl]methyl]ethanimidamide

>  <Synonyms>  (83) 


>  <Type>  (83) 
NON-POLYMER

>  <Formula>  (83) 
C10 H15 N3

>  <ObservedFormula>  (83) 
C9 N2

>  <MolecularWeight>  (83) 
177.246

>  <ModifiedDate>  (83) 
2011-06-04

>  <Parent>  (83) 


>  <OneLetterCode>  (83) 


>  <SubcomponentList>  (83) 


>  <AmbiguousFlag>  (83) 
N

>  <InsertionCode>  (83) 


>  <InstanceId>  (83) 
1FOI_14W_B_810

>  <ChemCompId>  (83) 
14W

>  <PdbId>  (83) 
1FOI

>  <ResidueNumber>  (83) 
810

>  <InChI>  (83) 
InChI=1S/C10H15N3/c1-8(12)13-7-10-4-2-3-9(5-10)6-11/h2-5H,6-7,11H2,1H3,(H2,12,13)

>  <InChIKey>  (83) 
RODUKNYOEVZQPR-UHFFFAOYSA-N

>  <SMILES>  (83) 
[H]/N=C(/C)\NCc1cccc(c1)CN

>  <MissingHeavyAtoms>  (83) 
2

>  <Model>  (83) 
1

>  <AltIds>  (83) 


>  <pKI>  (83) 
4.12

>  <ChemblID>  (83) 
-

>  <standardized_canonical_smiles>  (83) 
CC(=N)NCc1ccccc1

$$$$
1D1V_PTU_B_811
     RDKit          3D

 12 12  0  0  0  0  0  0  0  0999 V2000
   -0.6650   11.4990   66.3800 N   0  0  0  0  0  0  0  0  0  0  0  0
   -0.2120   10.2120   66.9490 C   0  0  0  0  0  0  0  0  0  0  0  0
    0.7800   10.2290   68.4540 S   0  0  0  0  0  0  0  0  0  0  0  0
   -0.5820    9.0910   66.2870 N   0  0  0  0  0  0  0  0  0  0  0  0
   -0.1850    7.7940   66.1880 C   0  0  0  0  0  0  0  0  0  0  0  0
   -1.1890    6.8290   65.8650 C   0  0  0  0  0  0  0  0  0  0  0  0
   -0.8570    5.4530   65.7360 C   0  0  0  0  0  0  0  0  0  0  0  0
    0.4810    5.0260   65.9340 C   0  0  0  0  0  0  0  0  0  0  0  0
    1.4850    5.9690   66.2580 C   0  0  0  0  0  0  0  0  0  0  0  0
    1.1600    7.3420   66.3870 C   0  0  0  0  0  0  0  0  0  0  0  0
    0.2390    8.9030   69.5650 C   0  0  0  0  0  0  0  0  0  0  0  0
    1.4550    8.2050   70.1440 C   0  0  0  0  0  0  0  0  0  0  0  0
  2  1  1  0
  3  2  1  0
  4  2  2  0
 11  3  1  0
  5  4  1  0
  6  5  2  0
 10  5  1  0
  7  6  1  0
  8  7  2  0
  9  8  1  0
 10  9  2  0
 12 11  1  0
A    1
N1
A    2
C
A    3
S
A    4
N2
A    5
C1
A    6
C2
A    7
C3
A    8
C4
A    9
C5
A   10
C6
A   11
C1'
A   12
C2'
M  END
>  <Id>  (84) 
1D1V_PTU_B_811

>  <ChainId>  (84) 
B

>  <AsymId>  (84) 
O

>  <SeqNum>  (84) 
811

>  <Name>  (84) 
2-ETHYL-1-PHENYL-ISOTHIOUREA

>  <SystematicName>  (84) 
1-ethylsulfanyl-N'-phenyl-methanimidamide

>  <Synonyms>  (84) 
S-ETHYL-N-PHENYL-ISOTHIOUREA

>  <Type>  (84) 
NON-POLYMER

>  <Formula>  (84) 
C9 H12 N2 S

>  <ObservedFormula>  (84) 
C9 S N2

>  <MolecularWeight>  (84) 
180.27

>  <ModifiedDate>  (84) 
2011-06-04

>  <Parent>  (84) 


>  <OneLetterCode>  (84) 


>  <SubcomponentList>  (84) 


>  <AmbiguousFlag>  (84) 
N

>  <InsertionCode>  (84) 


>  <InstanceId>  (84) 
1D1V_PTU_B_811

>  <ChemCompId>  (84) 
PTU

>  <PdbId>  (84) 
1D1V

>  <ResidueNumber>  (84) 
811

>  <InChI>  (84) 
InChI=1S/C9H12N2S/c1-2-12-9(10)11-8-6-4-3-5-7-8/h3-7H,2H2,1H3,(H2,10,11)

>  <InChIKey>  (84) 
LAXNJIWNBHHMDO-UHFFFAOYSA-N

>  <SMILES>  (84) 
CCSC(=Nc1ccccc1)N

>  <MissingHeavyAtoms>  (84) 
0

>  <Model>  (84) 
1

>  <AltIds>  (84) 


>  <pKI>  (84) 
6.4

>  <ChemblID>  (84) 
-

>  <standardized_canonical_smiles>  (84) 
CCS/C(N)=N\c1ccccc1

$$$$
9NSE_ISU_B_811
     RDKit          3D

  6  5  0  0  0  0  0  0  0  0999 V2000
   -2.1200    2.6920   90.0860 C   0  0  0  0  0  0  0  0  0  0  0  0
   -2.3410    1.7390   91.2480 C   0  0  0  0  0  0  0  0  0  0  0  0
   -1.6180    0.0460   90.9750 Se  0  0  0  0  0  2  0  0  0  0  0  0
    0.1770    0.0990   91.3770 C   0  0  0  0  0  0  0  0  0  0  0  0
    0.7840    1.2670   91.5270 N   0  0  0  0  0  0  0  0  0  0  0  0
    0.8510   -1.0250   91.5510 N   0  0  0  0  0  0  0  0  0  0  0  0
  2  1  1  0
  3  2  1  0
  4  3  1  0
  5  4  1  0
  6  4  2  0
A    1
C1
A    2
C2
A    3
SE
A    4
C3
A    5
N1
A    6
N2
M  END
>  <Id>  (85) 
9NSE_ISU_B_811

>  <ChainId>  (85) 
B

>  <AsymId>  (85) 
P

>  <SeqNum>  (85) 
811

>  <Name>  (85) 
SE-ETHYL-ISOSELENOUREA

>  <SystematicName>  (85) 
ethylselanylmethanimidamide

>  <Synonyms>  (85) 


>  <Type>  (85) 
NON-POLYMER

>  <Formula>  (85) 
C3 H8 N2 Se

>  <ObservedFormula>  (85) 
Se C3 N2

>  <MolecularWeight>  (85) 
151.069

>  <ModifiedDate>  (85) 
2011-06-04

>  <Parent>  (85) 


>  <OneLetterCode>  (85) 


>  <SubcomponentList>  (85) 


>  <AmbiguousFlag>  (85) 
N

>  <InsertionCode>  (85) 


>  <InstanceId>  (85) 
9NSE_ISU_B_811

>  <ChemCompId>  (85) 
ISU

>  <PdbId>  (85) 
9NSE

>  <ResidueNumber>  (85) 
811

>  <InChI>  (85) 
InChI=1S/C3H8N2Se/c1-2-6-3(4)5/h2H2,1H3,(H3,4,5)

>  <InChIKey>  (85) 
FFKYNFXDBBLWGF-UHFFFAOYSA-N

>  <SMILES>  (85) 
[H]/N=C(/N)\[Se]CC

>  <MissingHeavyAtoms>  (85) 
0

>  <Model>  (85) 
1

>  <AltIds>  (85) 


>  <pKI>  (85) 
7.41

>  <ChemblID>  (85) 
-

>  <standardized_canonical_smiles>  (85) 
CC[Se]C(=N)N

$$$$
5VV6_P64_B_503
     RDKit          3D

 24 26  0  0  0  0  0  0  0  0999 V2000
   -0.0540   -4.4840   60.7540 C   0  0  0  0  0  0  0  0  0  0  0  0
   -0.9770   -3.3580   60.6810 N   0  0  0  0  0  0  0  0  0  0  0  0
   -2.3560   -3.5500   60.2450 C   0  0  0  0  0  0  0  0  0  0  0  0
    1.1950   -0.5780   61.7810 C   0  0  0  0  0  0  0  0  0  0  0  0
    0.7680   -1.8620   61.4560 C   0  0  0  0  0  0  0  0  0  0  0  0
   -0.5380   -2.0690   61.0210 C   0  0  0  0  0  0  0  0  0  0  0  0
   -1.4140   -0.9920   60.9090 C   0  0  0  0  0  0  0  0  0  0  0  0
   -0.9920    0.2900   61.2340 C   0  0  0  0  0  0  0  0  0  0  0  0
    0.3140    0.4950   61.6670 C   0  0  0  0  0  0  0  0  0  0  0  0
    0.7600    1.8970   62.0210 C   0  0  0  0  0  0  0  0  0  0  0  0
    0.0230    2.3950   63.2560 C   0  0  0  0  0  0  0  0  0  0  0  0
    0.5960    3.6790   63.7080 N   0  0  0  0  0  0  0  0  0  0  0  0
   -0.3100    4.1930   64.7350 C   0  0  0  0  0  0  0  0  0  0  0  0
    0.1200    7.6390   66.1620 C   0  0  0  0  0  0  0  0  0  0  0  0
   -0.3580    6.5590   65.4460 C   0  0  0  0  0  0  0  0  0  0  0  0
    0.2720    5.3290   65.5430 C   0  0  0  0  0  0  0  0  0  0  0  0
    1.3930    5.1640   66.3610 C   0  0  0  0  0  0  0  0  0  0  0  0
    1.9010    6.2200   67.1230 C   0  0  0  0  0  0  0  0  0  0  0  0
    1.2900    7.4760   67.0490 C   0  0  0  0  0  0  0  0  0  0  0  0
    1.7370    8.5890   67.7600 C   0  0  0  0  0  0  0  0  0  0  0  0
    1.0470    9.7880   67.6130 C   0  0  0  0  0  0  0  0  0  0  0  0
   -0.0570    9.9010   66.7520 C   0  0  0  0  0  0  0  0  0  0  0  0
   -0.7300   11.0800   66.5960 N   0  0  0  0  0  0  0  0  0  0  0  0
   -0.4910    8.8330   66.0640 N   0  0  0  0  0  0  0  0  0  0  0  0
  2  1  1  0
  3  2  1  0
  6  2  1  0
  5  4  2  0
  9  4  1  0
  6  5  1  0
  7  6  2  0
  8  7  1  0
  9  8  2  0
 10  9  1  0
 11 10  1  0
 12 11  1  0
 13 12  1  0
 16 13  1  0
 15 14  2  0
 19 14  1  0
 24 14  1  0
 16 15  1  0
 17 16  2  0
 18 17  1  0
 19 18  2  0
 20 19  1  0
 21 20  2  0
 22 21  1  0
 23 22  1  0
 24 22  2  0
A    1
C28
A    2
N27
A    3
C29
A    4
C26
A    5
C25
A    6
C24
A    7
C23
A    8
C22
A    9
C21
A   10
C14
A   11
C13
A   12
N12
A   13
C11
A   14
C10
A   15
C09
A   16
C08
A   17
C07
A   18
C06
A   19
C05
A   20
C04
A   21
C03
A   22
C02
A   23
N02
A   24
N01
M  END
>  <Id>  (86) 
5VV6_P64_B_503

>  <ChainId>  (86) 
B

>  <AsymId>  (86) 
M

>  <SeqNum>  (86) 
503

>  <Name>  (86) 
7-[({2-[4-(dimethylamino)phenyl]ethyl}amino)methyl]quinolin-2-amine

>  <SystematicName>  (86) 
7-[[2-[4-(dimethylamino)phenyl]ethylamino]methyl]quinolin-2-amine

>  <Synonyms>  (86) 


>  <Type>  (86) 
NON-POLYMER

>  <Formula>  (86) 
C20 H24 N4

>  <ObservedFormula>  (86) 
C20 N4

>  <MolecularWeight>  (86) 
320.431

>  <ModifiedDate>  (86) 
2017-08-11

>  <Parent>  (86) 


>  <OneLetterCode>  (86) 


>  <SubcomponentList>  (86) 


>  <AmbiguousFlag>  (86) 
N

>  <InsertionCode>  (86) 


>  <InstanceId>  (86) 
5VV6_P64_B_503

>  <ChemCompId>  (86) 
P64

>  <PdbId>  (86) 
5VV6

>  <ResidueNumber>  (86) 
503

>  <InChI>  (86) 
InChI=1S/C20H24N4/c1-24(2)18-8-4-15(5-9-18)11-12-22-14-16-3-6-17-7-10-20(21)23-19(17)13-16/h3-10,13,22H,11-12,14H2,1-2H3,(H2,21,23)

>  <InChIKey>  (86) 
SYHMYZCWRIEYOI-UHFFFAOYSA-N

>  <SMILES>  (86) 
CN(C)c1ccc(cc1)CCNCc2ccc3ccc(nc3c2)N

>  <MissingHeavyAtoms>  (86) 
0

>  <Model>  (86) 
1

>  <AltIds>  (86) 


>  <pKI>  (86) 
5.8

>  <ChemblID>  (86) 
-

>  <standardized_canonical_smiles>  (86) 
CN(C)c1ccc(CCNCc2ccc3ccc(N)nc3c2)cc1

$$$$
5VV7_XH8_B_503
     RDKit          3D

 22 24  0  0  0  0  0  0  0  0999 V2000
   -0.5920   11.2560   66.5580 N   0  0  0  0  0  0  0  0  0  0  0  0
    0.0720   10.0750   66.6900 C   0  0  0  0  0  0  0  0  0  0  0  0
    1.1900    9.9450   67.5220 C   0  0  0  0  0  0  0  0  0  0  0  0
    1.8400    8.7300   67.6130 C   0  0  0  0  0  0  0  0  0  0  0  0
    1.3570    7.6470   66.8770 C   0  0  0  0  0  0  0  0  0  0  0  0
    1.9790    6.3930   66.9360 C   0  0  0  0  0  0  0  0  0  0  0  0
    1.4690    5.3330   66.1770 C   0  0  0  0  0  0  0  0  0  0  0  0
    0.3360    5.5100   65.3600 C   0  0  0  0  0  0  0  0  0  0  0  0
   -0.2360    4.3750   64.5250 C   0  0  0  0  0  0  0  0  0  0  0  0
    0.8440    3.4340   64.1880 N   0  0  0  0  0  0  0  0  0  0  0  0
    0.6910    2.8960   62.8250 C   0  0  0  0  0  0  0  0  0  0  0  0
   -0.3490    1.7870   62.7760 C   0  0  0  0  0  0  0  0  0  0  0  0
   -0.3620    1.1140   61.4060 C   0  0  0  0  0  0  0  0  0  0  0  0
    0.1740   -0.2980   61.5210 C   0  0  0  0  0  0  0  0  0  0  0  0
   -0.6150   -1.3770   61.1360 C   0  0  0  0  0  0  0  0  0  0  0  0
   -0.1080   -2.6670   61.2480 C   0  0  0  0  0  0  0  0  0  0  0  0
    1.1820   -2.8430   61.7410 C   0  0  0  0  0  0  0  0  0  0  0  0
    1.9260   -1.7850   62.1040 N   0  0  0  0  0  0  0  0  0  0  0  0
    1.4580   -0.5330   62.0030 C   0  0  0  0  0  0  0  0  0  0  0  0
   -0.2720    6.7610   65.3110 C   0  0  0  0  0  0  0  0  0  0  0  0
    0.2430    7.8150   66.0570 C   0  0  0  0  0  0  0  0  0  0  0  0
   -0.3650    9.0130   65.9820 N   0  0  0  0  0  0  0  0  0  0  0  0
  2  1  1  0
  3  2  2  0
 22  2  1  0
  4  3  1  0
  5  4  2  0
  6  5  1  0
 21  5  1  0
  7  6  2  0
  8  7  1  0
  9  8  1  0
 20  8  2  0
 10  9  1  0
 11 10  1  0
 12 11  1  0
 13 12  1  0
 14 13  1  0
 15 14  2  0
 19 14  1  0
 16 15  1  0
 17 16  2  0
 18 17  1  0
 19 18  2  0
 21 20  1  0
 22 21  2  0
A    1
N01
A    2
C02
A    3
C03
A    4
C04
A    5
C05
A    6
C06
A    7
C07
A    8
C08
A    9
C09
A   10
N10
A   11
C11
A   12
C12
A   13
C13
A   14
C14
A   15
C15
A   16
C16
A   17
C17
A   18
N18
A   19
C19
A   20
C20
A   21
C21
A   22
N22
M  END
>  <Id>  (87) 
5VV7_XH8_B_503

>  <ChainId>  (87) 
B

>  <AsymId>  (87) 
J

>  <SeqNum>  (87) 
503

>  <Name>  (87) 
7-(((3-(PYRIDIN-3-YL)PROPYL)AMINO)METHYL)QUINOLIN-2-

>  <SystematicName>  (87) 
7-[(3-pyridin-3-ylpropylamino)methyl]quinolin-2-amine

>  <Synonyms>  (87) 


>  <Type>  (87) 
non-polymer

>  <Formula>  (87) 
C18 H20 N4

>  <ObservedFormula>  (87) 
C18 N4

>  <MolecularWeight>  (87) 
292.378

>  <ModifiedDate>  (87) 
2016-09-16

>  <Parent>  (87) 


>  <OneLetterCode>  (87) 


>  <SubcomponentList>  (87) 


>  <AmbiguousFlag>  (87) 
N

>  <InsertionCode>  (87) 


>  <InstanceId>  (87) 
5VV7_XH8_B_503

>  <ChemCompId>  (87) 
XH8

>  <PdbId>  (87) 
5VV7

>  <ResidueNumber>  (87) 
503

>  <InChI>  (87) 
InChI=1S/C18H20N4/c19-18-8-7-16-6-5-15(11-17(16)22-18)13-21-10-2-4-14-3-1-9-20-12-14/h1,3,5-9,11-12,21H,2,4,10,13H2,(H2,19,22)

>  <InChIKey>  (87) 
SYLCHGGIDVOGEK-UHFFFAOYSA-N

>  <SMILES>  (87) 
c1cc(cnc1)CCCNCc2ccc3ccc(nc3c2)N

>  <MissingHeavyAtoms>  (87) 
0

>  <Model>  (87) 
1

>  <AltIds>  (87) 


>  <pKI>  (87) 
5.98

>  <ChemblID>  (87) 
-

>  <standardized_canonical_smiles>  (87) 
Nc1ccc2ccc(CNCCCc3cccnc3)cc2n1

$$$$
1D1W_ATQ_B_801
     RDKit          3D

  6  6  0  0  0  0  0  0  0  0999 V2000
    0.0330    8.9300   66.1240 N   0  0  0  0  0  0  0  0  0  0  0  0
    0.1760   10.0980   66.7760 C   0  0  0  0  0  0  0  0  0  0  0  0
    1.1350    9.9430   68.2370 S   0  0  0  0  0  0  0  0  0  0  0  0
    1.2050    8.1460   68.1110 C   0  0  0  0  0  0  0  0  0  0  0  0
    0.7810    7.7990   66.6820 C   0  0  0  0  0  0  0  0  0  0  0  0
   -0.4010   11.3140   66.2980 N   0  0  0  0  0  0  0  0  0  0  0  0
  2  1  2  0
  5  1  1  0
  3  2  1  0
  6  2  1  0
  4  3  1  0
  5  4  1  0
A    1
N1
A    2
C2
A    3
S3
A    4
C4
A    5
C5
A    6
N2
M  END
>  <Id>  (88) 
1D1W_ATQ_B_801

>  <ChainId>  (88) 
B

>  <AsymId>  (88) 
P

>  <SeqNum>  (88) 
801

>  <Name>  (88) 
2-AMINOTHIAZOLINE

>  <SystematicName>  (88) 
4,5-dihydro-1,3-thiazol-2-amine

>  <Synonyms>  (88) 


>  <Type>  (88) 
NON-POLYMER

>  <Formula>  (88) 
C3 H6 N2 S

>  <ObservedFormula>  (88) 
C3 S N2

>  <MolecularWeight>  (88) 
102.158

>  <ModifiedDate>  (88) 
2011-06-04

>  <Parent>  (88) 


>  <OneLetterCode>  (88) 


>  <SubcomponentList>  (88) 


>  <AmbiguousFlag>  (88) 
N

>  <InsertionCode>  (88) 


>  <InstanceId>  (88) 
1D1W_ATQ_B_801

>  <ChemCompId>  (88) 
ATQ

>  <PdbId>  (88) 
1D1W

>  <ResidueNumber>  (88) 
801

>  <InChI>  (88) 
InChI=1S/C3H6N2S/c4-3-5-1-2-6-3/h1-2H2,(H2,4,5)

>  <InChIKey>  (88) 
REGFWZVTTFGQOJ-UHFFFAOYSA-N

>  <SMILES>  (88) 
C1CSC(=N1)N

>  <MissingHeavyAtoms>  (88) 
0

>  <Model>  (88) 
1

>  <AltIds>  (88) 


>  <pKI>  (88) 
6.46

>  <ChemblID>  (88) 
-

>  <standardized_canonical_smiles>  (88) 
NC1=NCCS1

$$$$
5VVG_9PM_B_503
     RDKit          3D

 24 26  0  0  0  0  0  0  0  0999 V2000
    0.3870   -4.5200   60.6410 N   0  0  0  0  0  0  0  0  0  0  0  0
    0.4260   -3.3740   60.7680 C   0  0  0  0  0  0  0  0  0  0  0  0
    0.4710   -2.1100   60.9740 C   0  0  0  0  0  0  0  0  0  0  0  0
   -0.6270   -1.3540   60.5770 C   0  0  0  0  0  0  0  0  0  0  0  0
   -2.0900   -2.1080   59.8420 Cl  0  0  0  0  0  0  0  0  0  0  0  0
   -0.6200    0.0290   60.7550 C   0  0  0  0  0  0  0  0  0  0  0  0
    1.5970   -1.4870   61.5450 C   0  0  0  0  0  0  0  0  0  0  0  0
    1.5860   -0.1010   61.7120 C   0  0  0  0  0  0  0  0  0  0  0  0
    0.4860    0.6500   61.3190 C   0  0  0  0  0  0  0  0  0  0  0  0
    0.5240    2.1370   61.5350 C   0  0  0  0  0  0  0  0  0  0  0  0
   -0.1260    2.4230   62.8750 C   0  0  0  0  0  0  0  0  0  0  0  0
    0.4700    3.6450   63.4490 N   0  0  0  0  0  0  0  0  0  0  0  0
   -0.5670    4.2670   64.2860 C   0  0  0  0  0  0  0  0  0  0  0  0
   -0.0240    5.4010   65.1290 C   0  0  0  0  0  0  0  0  0  0  0  0
   -0.6580    6.6390   65.0820 C   0  0  0  0  0  0  0  0  0  0  0  0
    1.1000    5.2380   65.9420 C   0  0  0  0  0  0  0  0  0  0  0  0
    1.5600    6.3040   66.7190 C   0  0  0  0  0  0  0  0  0  0  0  0
    0.9130    7.5410   66.6790 C   0  0  0  0  0  0  0  0  0  0  0  0
    1.3650    8.6120   67.4450 C   0  0  0  0  0  0  0  0  0  0  0  0
    0.6810    9.8230   67.3740 C   0  0  0  0  0  0  0  0  0  0  0  0
   -0.4190    9.9490   66.5220 C   0  0  0  0  0  0  0  0  0  0  0  0
   -1.0910   11.1210   66.4250 N   0  0  0  0  0  0  0  0  0  0  0  0
   -0.8350    8.8950   65.7850 N   0  0  0  0  0  0  0  0  0  0  0  0
   -0.1950    7.7070   65.8490 C   0  0  0  0  0  0  0  0  0  0  0  0
  2  1  3  0
  3  2  1  0
  4  3  2  0
  7  3  1  0
  5  4  1  0
  6  4  1  0
  9  6  2  0
  8  7  2  0
  9  8  1  0
 10  9  1  0
 11 10  1  0
 12 11  1  0
 13 12  1  0
 14 13  1  0
 15 14  2  0
 16 14  1  0
 24 15  1  0
 17 16  2  0
 18 17  1  0
 19 18  1  0
 24 18  2  0
 20 19  2  0
 21 20  1  0
 22 21  1  0
 23 21  2  0
 24 23  1  0
A    1
N28
A    2
C27
A    3
C24
A    4
C23
A    5
CL2
A    6
C22
A    7
C25
A    8
C26
A    9
C21
A   10
C14
A   11
C13
A   12
N12
A   13
C11
A   14
C08
A   15
C09
A   16
C07
A   17
C06
A   18
C05
A   19
C04
A   20
C03
A   21
C02
A   22
N02
A   23
N01
A   24
C10
M  END
>  <Id>  (89) 
5VVG_9PM_B_503

>  <ChainId>  (89) 
B

>  <AsymId>  (89) 
J

>  <SeqNum>  (89) 
503

>  <Name>  (89) 
4-(2-{[(2-aminoquinolin-7-yl)methyl]amino}ethyl)-2-chlorobenzonitrile

>  <SystematicName>  (89) 
4-[2-[(2-azanylquinolin-7-yl)methylamino]ethyl]-2-chloranyl-benzenecarbonitrile

>  <Synonyms>  (89) 


>  <Type>  (89) 
NON-POLYMER

>  <Formula>  (89) 
C19 H17 Cl N4

>  <ObservedFormula>  (89) 
C19 Cl N4

>  <MolecularWeight>  (89) 
336.818

>  <ModifiedDate>  (89) 
2017-08-11

>  <Parent>  (89) 


>  <OneLetterCode>  (89) 


>  <SubcomponentList>  (89) 


>  <AmbiguousFlag>  (89) 
N

>  <InsertionCode>  (89) 


>  <InstanceId>  (89) 
5VVG_9PM_B_503

>  <ChemCompId>  (89) 
9PM

>  <PdbId>  (89) 
5VVG

>  <ResidueNumber>  (89) 
503

>  <InChI>  (89) 
InChI=1S/C19H17ClN4/c20-17-9-13(1-4-16(17)11-21)7-8-23-12-14-2-3-15-5-6-19(22)24-18(15)10-14/h1-6,9-10,23H,7-8,12H2,(H2,22,24)

>  <InChIKey>  (89) 
KZMLSFIKJMMRRD-UHFFFAOYSA-N

>  <SMILES>  (89) 
c1cc(cc2c1ccc(n2)N)CNCCc3ccc(c(c3)Cl)C#N

>  <MissingHeavyAtoms>  (89) 
0

>  <Model>  (89) 
1

>  <AltIds>  (89) 


>  <pKI>  (89) 
6.94

>  <ChemblID>  (89) 
-

>  <standardized_canonical_smiles>  (89) 
N#Cc1ccc(CCNCc2ccc3ccc(N)nc3c2)cc1Cl

$$$$
5VVN_P94_B_503
     RDKit          3D

 23 25  0  0  0  0  0  0  0  0999 V2000
    0.5910   -4.7490   60.7640 N   0  0  0  0  0  0  0  0  0  0  0  0
    0.6120   -3.5960   60.8500 C   0  0  0  0  0  0  0  0  0  0  0  0
    0.7020    0.4330   61.3140 C   0  0  0  0  0  0  0  0  0  0  0  0
    1.7800   -0.3450   61.7190 C   0  0  0  0  0  0  0  0  0  0  0  0
    1.7510   -1.7170   61.5610 C   0  0  0  0  0  0  0  0  0  0  0  0
    0.6380   -2.3160   60.9900 C   0  0  0  0  0  0  0  0  0  0  0  0
   -0.4460   -1.5380   60.5920 C   0  0  0  0  0  0  0  0  0  0  0  0
   -0.4180   -0.1590   60.7500 C   0  0  0  0  0  0  0  0  0  0  0  0
    0.7530    1.9280   61.5190 C   0  0  0  0  0  0  0  0  0  0  0  0
    0.4480    2.1880   62.9910 C   0  0  0  0  0  0  0  0  0  0  0  0
    0.9170    3.5300   63.3880 N   0  0  0  0  0  0  0  0  0  0  0  0
   -0.1980    4.2010   64.0750 C   0  0  0  0  0  0  0  0  0  0  0  0
    0.1120    7.6020   65.7020 C   0  0  0  0  0  0  0  0  0  0  0  0
   -0.3400    6.5520   64.9120 C   0  0  0  0  0  0  0  0  0  0  0  0
    0.3090    5.3250   64.9440 C   0  0  0  0  0  0  0  0  0  0  0  0
    1.4170    5.1520   65.7670 C   0  0  0  0  0  0  0  0  0  0  0  0
    1.8670    6.1940   66.5690 C   0  0  0  0  0  0  0  0  0  0  0  0
    1.2090    7.4230   66.5340 C   0  0  0  0  0  0  0  0  0  0  0  0
    1.6440    8.4750   67.3220 C   0  0  0  0  0  0  0  0  0  0  0  0
    0.9660    9.6780   67.2600 C   0  0  0  0  0  0  0  0  0  0  0  0
   -0.1300    9.8260   66.4130 C   0  0  0  0  0  0  0  0  0  0  0  0
   -0.8020   11.0120   66.3430 N   0  0  0  0  0  0  0  0  0  0  0  0
   -0.5270    8.7830   65.6550 N   0  0  0  0  0  0  0  0  0  0  0  0
  2  1  3  0
  6  2  1  0
  4  3  2  0
  8  3  1  0
  9  3  1  0
  5  4  1  0
  6  5  2  0
  7  6  1  0
  8  7  2  0
 10  9  1  0
 11 10  1  0
 12 11  1  0
 15 12  1  0
 14 13  2  0
 18 13  1  0
 23 13  1  0
 15 14  1  0
 16 15  2  0
 17 16  1  0
 18 17  2  0
 19 18  1  0
 20 19  2  0
 21 20  1  0
 22 21  1  0
 23 21  2  0
A    1
N28
A    2
C27
A    3
C21
A    4
C22
A    5
C23
A    6
C24
A    7
C25
A    8
C26
A    9
C14
A   10
C13
A   11
N12
A   12
C11
A   13
C10
A   14
C09
A   15
C08
A   16
C07
A   17
C06
A   18
C05
A   19
C04
A   20
C03
A   21
C02
A   22
N02
A   23
N01
M  END
>  <Id>  (90) 
5VVN_P94_B_503

>  <ChainId>  (90) 
B

>  <AsymId>  (90) 
L

>  <SeqNum>  (90) 
503

>  <Name>  (90) 
4-(2-{[(2-aminoquinolin-7-yl)methyl]amino}ethyl)benzonitrile

>  <SystematicName>  (90) 
4-[2-[(2-azanylquinolin-7-yl)methylamino]ethyl]benzenecarbonitrile

>  <Synonyms>  (90) 


>  <Type>  (90) 
NON-POLYMER

>  <Formula>  (90) 
C19 H18 N4

>  <ObservedFormula>  (90) 
C19 N4

>  <MolecularWeight>  (90) 
302.373

>  <ModifiedDate>  (90) 
2017-08-11

>  <Parent>  (90) 


>  <OneLetterCode>  (90) 


>  <SubcomponentList>  (90) 


>  <AmbiguousFlag>  (90) 
N

>  <InsertionCode>  (90) 


>  <InstanceId>  (90) 
5VVN_P94_B_503

>  <ChemCompId>  (90) 
P94

>  <PdbId>  (90) 
5VVN

>  <ResidueNumber>  (90) 
503

>  <InChI>  (90) 
InChI=1S/C19H18N4/c20-12-15-3-1-14(2-4-15)9-10-22-13-16-5-6-17-7-8-19(21)23-18(17)11-16/h1-8,11,22H,9-10,13H2,(H2,21,23)

>  <InChIKey>  (90) 
CDHZAJGZCBJOTB-UHFFFAOYSA-N

>  <SMILES>  (90) 
c1cc(ccc1CCNCc2ccc3ccc(nc3c2)N)C#N

>  <MissingHeavyAtoms>  (90) 
0

>  <Model>  (90) 
1

>  <AltIds>  (90) 


>  <pKI>  (90) 
6.24

>  <ChemblID>  (90) 
-

>  <standardized_canonical_smiles>  (90) 
N#Cc1ccc(CCNCc2ccc3ccc(N)nc3c2)cc1

$$$$
