4NA7_1T5_A_301
     RDKit          3D

 45 49  0  0  0  0  0  0  0  0999 V2000
    4.2040   30.5120   21.2050 C   0  0  0  0  0  0  0  0  0  0  0  0
    2.9400   29.9970   21.3570 C   0  0  0  0  0  0  0  0  0  0  0  0
    5.2680   29.6580   21.0170 C   0  0  0  0  0  0  0  0  0  0  0  0
    0.1130   27.4770   28.3820 C   0  0  0  0  0  0  0  0  0  0  0  0
   -1.0640   27.9280   28.9490 C   0  0  0  0  0  0  0  0  0  0  0  0
    0.3280   24.4150   19.4470 C   0  0  0  0  0  0  0  0  0  0  0  0
    2.7380   28.6240   21.3550 C   0  0  0  0  0  0  0  0  0  0  0  0
    5.0750   28.2820   21.0250 C   0  0  0  0  0  0  0  0  0  0  0  0
    0.5170   24.1120   20.7840 C   0  0  0  0  0  0  0  0  0  0  0  0
    1.5740   25.6830   25.6130 C   0  0  0  0  0  0  0  0  0  0  0  0
    2.4160   25.5000   27.8610 C   0  0  0  0  0  0  0  0  0  0  0  0
   -2.3070   26.2410   27.7820 C   0  0  0  0  0  0  0  0  0  0  0  0
    2.1440   25.9850   19.5270 C   0  0  0  0  0  0  0  0  0  0  0  0
    3.6320   24.5530   26.0160 C   0  0  0  0  0  0  0  0  0  0  0  0
    0.1050   26.4040   27.4980 C   0  0  0  0  0  0  0  0  0  0  0  0
    1.4050   25.8980   26.9800 C   0  0  0  0  0  0  0  0  0  0  0  0
   -2.2690   27.2700   28.7170 C   0  0  0  0  0  0  0  0  0  0  0  0
    1.1150   25.3750   18.8110 C   0  0  0  0  0  0  0  0  0  0  0  0
   -1.1330   25.8170   27.1700 C   0  0  0  0  0  0  0  0  0  0  0  0
    3.8100   27.7410   21.2330 C   0  0  0  0  0  0  0  0  0  0  0  0
    2.6770   25.0050   25.1110 C   0  0  0  0  0  0  0  0  0  0  0  0
    2.3820   25.6570   20.8600 C   0  0  0  0  0  0  0  0  0  0  0  0
    1.5570   24.7110   21.4980 C   0  0  0  0  0  0  0  0  0  0  0  0
    3.5410   24.8440   27.3730 C   0  0  0  0  0  0  0  0  0  0  0  0
    1.0320   25.6610   17.3190 C   0  0  0  0  0  0  0  0  0  0  0  0
   -3.4570   27.6640   29.5510 C   0  0  0  0  0  0  0  0  0  0  0  0
   -1.2890   24.7710   26.1300 C   0  0  0  0  0  0  0  0  0  0  0  0
    5.1590   25.2500   29.2410 C   0  0  0  0  0  0  0  0  0  0  0  0
    3.3890   26.2400   23.0890 C   0  0  0  0  0  0  0  0  0  0  0  0
    2.9250   24.8790   23.6170 C   0  0  0  0  0  0  0  0  0  0  0  0
    3.6120   26.2460   21.5510 C   0  0  0  0  0  0  0  0  0  0  0  0
    4.8430   25.4140   21.1350 C   0  0  0  0  0  0  0  0  0  0  0  0
    7.5350   24.2870   30.7350 C   0  0  0  0  0  0  0  0  0  0  0  0
    7.2600   26.7040   31.4110 C   0  0  0  0  0  0  0  0  0  0  0  0
    6.5040   25.9390   29.1470 C   0  0  0  0  0  0  0  0  0  0  0  0
    7.5040   25.7290   30.2750 C   0  0  0  0  0  0  0  0  0  0  0  0
    0.5370   24.7470   16.5060 N   0  0  0  0  0  0  0  0  0  0  0  0
    1.7730   24.3500   22.8350 N   0  0  0  0  0  0  0  0  0  0  0  0
    1.6820   26.7890   16.7870 N   0  0  0  0  0  0  0  0  0  0  0  0
   -4.5760   26.9310   29.4620 N   0  0  0  0  0  0  0  0  0  0  0  0
    4.7710   24.7080   28.0650 N   0  0  0  0  0  0  0  0  0  0  0  0
   -3.4160   28.7010   30.1880 O   0  0  0  0  0  0  0  0  0  0  0  0
   -1.5560   25.0880   25.0100 O   0  0  0  0  0  0  0  0  0  0  0  0
    4.4860   25.2720   30.2660 O   0  0  0  0  0  0  0  0  0  0  0  0
   -1.1470   23.5270   26.4950 O   0  0  0  0  0  0  0  0  0  0  0  0
  2  1  2  0
  3  1  1  0
  7  2  1  0
  8  3  2  0
  5  4  2  0
 15  4  1  0
 17  5  1  0
  9  6  2  0
 18  6  1  0
 20  7  2  0
 20  8  1  0
 23  9  1  0
 16 10  2  0
 21 10  1  0
 16 11  1  0
 24 11  2  0
 17 12  2  0
 19 12  1  0
 18 13  2  0
 22 13  1  0
 21 14  2  0
 24 14  1  0
 16 15  1  0
 19 15  2  0
 26 17  1  0
 25 18  1  0
 27 19  1  0
 31 20  1  0
 30 21  1  0
 23 22  2  0
 31 22  1  0
 38 23  1  0
 41 24  1  0
 37 25  2  0
 39 25  1  0
 40 26  1  0
 42 26  2  0
 43 27  2  0
 45 27  1  0
 35 28  1  0
 41 28  1  0
 44 28  2  0
 30 29  1  0
 31 29  1  0
 38 30  1  0
 32 31  1  0
 36 33  1  0
 36 34  1  0
 36 35  1  0
A    1
C1
A    2
C2
A    3
C3
A    4
C4
A    5
C5
A    6
C6
A    7
C7
A    8
C8
A    9
C9
A   10
C10
A   11
C11
A   12
C12
A   13
C13
A   14
C14
A   15
C15
A   16
C16
A   17
C17
A   18
C18
A   19
C19
A   20
C20
A   21
C21
A   22
C22
A   23
C23
A   24
C24
A   25
C25
A   26
C26
A   27
C27
A   28
C28
A   29
C29
A   30
C30
A   31
C31
A   32
C32
A   33
C33
A   34
C34
A   35
C35
A   36
C36
A   37
N37
A   38
N38
A   39
N39
A   40
N40
A   41
N41
A   42
O42
A   43
O43
A   44
O44
A   45
O45
M  END
>  <Id>  (1) 
4NA7_1T5_A_301

>  <ChainId>  (1) 
A

>  <AsymId>  (1) 
B

>  <SeqNum>  (1) 
301

>  <Name>  (1) 
3'-[(2S,4R)-6-carbamimidoyl-4-methyl-4-phenyl-1,2,3,4-tetrahydroquinolin-2-yl]-4-carbamoyl-5'-[(3-methylbutanoyl)amino]biphenyl-2-carboxylic acid

>  <SystematicName>  (1) 
5-aminocarbonyl-2-[3-[(2S,4R)-6-carbamimidoyl-4-methyl-4-phenyl-2,3-dihydro-1H-quinolin-2-yl]-5-(3-methylbutanoylamino)phenyl]benzoic acid

>  <Synonyms>  (1) 


>  <Type>  (1) 
NON-POLYMER

>  <Formula>  (1) 
C36 H37 N5 O4

>  <ObservedFormula>  (1) 
C36 N5 O4

>  <MolecularWeight>  (1) 
603.71

>  <ModifiedDate>  (1) 
2014-02-07

>  <Parent>  (1) 


>  <OneLetterCode>  (1) 


>  <SubcomponentList>  (1) 


>  <AmbiguousFlag>  (1) 
N

>  <InsertionCode>  (1) 


>  <InstanceId>  (1) 
4NA7_1T5_A_301

>  <ChemCompId>  (1) 
1T5

>  <PdbId>  (1) 
4NA7

>  <ResidueNumber>  (1) 
301

>  <InChI>  (1) 
InChI=1S/C36H37N5O4/c1-20(2)13-32(42)40-26-15-23(27-11-9-22(34(39)43)17-28(27)35(44)45)14-24(16-26)31-19-36(3,25-7-5-4-6-8-25)29-18-21(33(37)38)10-12-30(29)41-31/h4-12,14-18,20,31,41H,13,19H2,1-3H3,(H3,37,38)(H2,39,43)(H,40,42)(H,44,45)/t31-,36+/m0/s1

>  <InChIKey>  (1) 
PDUMJXCNOKHQKH-SVXHESJVSA-N

>  <SMILES>  (1) 
[H]/N=C(/c1ccc2c(c1)[C@@](C[C@H](N2)c3cc(cc(c3)NC(=O)CC(C)C)c4ccc(cc4C(=O)O)C(=O)N)(C)c5ccccc5)\N

>  <MissingHeavyAtoms>  (1) 
0

>  <Model>  (1) 
1

>  <AltIds>  (1) 


>  <pKI>  (1) 
9.46

>  <ChemblID>  (1) 
CHEMBL3127491

>  <standardized_canonical_smiles>  (1) 
CC(C)CC(=O)Nc1cc(-c2ccc(C(N)=O)cc2C(=O)O)cc([C@@H]2C[C@](C)(c3ccccc3)c3cc(C(=N)N)ccc3N2)c1

$$$$
4NA8_1T6_A_301
     RDKit          3D

 38 42  0  0  0  0  0  0  0  0999 V2000
   40.1380  -21.1010   27.5760 C   0  0  0  0  0  0  0  0  0  0  0  0
   43.9890  -22.4250   30.7890 C   0  0  0  0  0  0  0  0  0  0  0  0
   41.9610  -22.2410   28.8470 C   0  0  0  0  0  0  0  0  0  0  0  0
   40.8820  -22.2540   27.8220 C   0  0  0  0  0  0  0  0  0  0  0  0
   37.5860  -15.5720   26.8770 C   0  0  0  0  0  0  0  0  0  0  0  0
   36.8620  -15.0780   27.9660 C   0  0  0  0  0  0  0  0  0  0  0  0
   41.7000  -21.9220   30.1890 C   0  0  0  0  0  0  0  0  0  0  0  0
   39.6040  -16.6320   24.8730 C   0  0  0  0  0  0  0  0  0  0  0  0
   39.0410  -21.1040   26.7270 C   0  0  0  0  0  0  0  0  0  0  0  0
   37.9280  -16.9240   26.7900 C   0  0  0  0  0  0  0  0  0  0  0  0
   37.5610  -17.7920   27.8350 C   0  0  0  0  0  0  0  0  0  0  0  0
   38.6940  -22.2870   26.0960 C   0  0  0  0  0  0  0  0  0  0  0  0
   36.8110  -17.3010   28.9060 C   0  0  0  0  0  0  0  0  0  0  0  0
   40.3510  -21.4930   30.6400 C   0  0  0  0  0  0  0  0  0  0  0  0
   41.7470  -15.1840   23.7820 C   0  0  0  0  0  0  0  0  0  0  0  0
   41.6740  -15.4020   25.1440 C   0  0  0  0  0  0  0  0  0  0  0  0
   40.7610  -15.6840   22.9600 C   0  0  0  0  0  0  0  0  0  0  0  0
   39.4190  -23.4500   26.3310 C   0  0  0  0  0  0  0  0  0  0  0  0
   40.5090  -23.4330   27.1830 C   0  0  0  0  0  0  0  0  0  0  0  0
   43.2590  -22.6090   28.4920 C   0  0  0  0  0  0  0  0  0  0  0  0
   44.2570  -22.6950   29.4490 C   0  0  0  0  0  0  0  0  0  0  0  0
   36.4670  -15.9630   28.9670 C   0  0  0  0  0  0  0  0  0  0  0  0
   40.6160  -16.1230   25.6880 C   0  0  0  0  0  0  0  0  0  0  0  0
   39.6910  -16.3970   23.4970 C   0  0  0  0  0  0  0  0  0  0  0  0
   42.7070  -22.0140   31.1500 C   0  0  0  0  0  0  0  0  0  0  0  0
   36.3960  -13.6070   28.0070 C   0  0  0  0  0  0  0  0  0  0  0  0
   45.1090  -22.5510   31.8010 C   0  0  0  0  0  0  0  0  0  0  0  0
   39.1600  -18.8820   25.7150 C   0  0  0  0  0  0  0  0  0  0  0  0
   38.2440  -19.8320   26.5080 C   0  0  0  0  0  0  0  0  0  0  0  0
   38.4860  -17.5050   25.4790 C   0  0  0  0  0  0  0  0  0  0  0  0
   37.3460  -17.7280   24.4600 C   0  0  0  0  0  0  0  0  0  0  0  0
   36.9570  -12.6720   27.2710 N   0  0  0  0  0  0  0  0  0  0  0  0
   37.9000  -19.1550   27.8000 N   0  0  0  0  0  0  0  0  0  0  0  0
   35.4350  -13.2070   28.9260 N   0  0  0  0  0  0  0  0  0  0  0  0
   44.8180  -22.3820   33.1020 N   0  0  0  0  0  0  0  0  0  0  0  0
   46.2710  -22.7370   31.4040 O   0  0  0  0  0  0  0  0  0  0  0  0
   39.3660  -22.2310   30.5570 O   0  0  0  0  0  0  0  0  0  0  0  0
   40.3090  -20.2640   31.0180 O   0  0  0  0  0  0  0  0  0  0  0  0
  4  1  2  0
  9  1  1  0
 21  2  2  0
 25  2  1  0
 27  2  1  0
  4  3  1  0
  7  3  1  0
 20  3  2  0
 19  4  1  0
  6  5  2  0
 10  5  1  0
 22  6  1  0
 26  6  1  0
 14  7  1  0
 25  7  2  0
 23  8  2  0
 24  8  1  0
 30  8  1  0
 12  9  2  0
 29  9  1  0
 11 10  2  0
 30 10  1  0
 13 11  1  0
 33 11  1  0
 18 12  1  0
 22 13  2  0
 37 14  2  0
 38 14  1  0
 16 15  2  0
 17 15  1  0
 23 16  1  0
 24 17  2  0
 19 18  2  0
 21 20  1  0
 32 26  2  0
 34 26  1  0
 35 27  1  0
 36 27  2  0
 29 28  1  0
 30 28  1  0
 33 29  1  0
 31 30  1  0
A    1
C13
A    2
C18
A    3
C17
A    4
C16
A    5
C15
A    6
C19
A    7
C20
A    8
C21
A    9
C22
A   10
C23
A   11
C24
A   12
C11
A   13
C12
A   14
C27
A   15
C1
A   16
C2
A   17
C3
A   18
C4
A   19
C5
A   20
C6
A   21
C7
A   22
C8
A   23
C9
A   24
C10
A   25
C14
A   26
C25
A   27
C26
A   28
C28
A   29
C29
A   30
C30
A   31
C31
A   32
N32
A   33
N33
A   34
N34
A   35
N35
A   36
O36
A   37
O37
A   38
O38
M  END
>  <Id>  (2) 
4NA8_1T6_A_301

>  <ChainId>  (2) 
A

>  <AsymId>  (2) 
B

>  <SeqNum>  (2) 
301

>  <Name>  (2) 
5-aminocarbonyl-2-[3-[(2S,4R)-6-carbamimidoyl-4-methyl-4-phenyl-2,3-dihydro-1H-quinolin-2-yl]phenyl]benzoic acid

>  <SystematicName>  (2) 
5-aminocarbonyl-2-[3-[(2S,4R)-6-carbamimidoyl-4-methyl-4-phenyl-2,3-dihydro-1H-quinolin-2-yl]phenyl]benzoic acid

>  <Synonyms>  (2) 


>  <Type>  (2) 
non-polymer

>  <Formula>  (2) 
C31 H28 N4 O3

>  <ObservedFormula>  (2) 
C31 N4 O3

>  <MolecularWeight>  (2) 
504.579

>  <ModifiedDate>  (2) 
2014-09-05

>  <Parent>  (2) 


>  <OneLetterCode>  (2) 


>  <SubcomponentList>  (2) 


>  <AmbiguousFlag>  (2) 
N

>  <InsertionCode>  (2) 


>  <InstanceId>  (2) 
4NA8_1T6_A_301

>  <ChemCompId>  (2) 
1T6

>  <PdbId>  (2) 
4NA8

>  <ResidueNumber>  (2) 
301

>  <InChI>  (2) 
InChI=1S/C31H28N4O3/c1-31(22-8-3-2-4-9-22)17-27(35-26-13-11-20(28(32)33)16-25(26)31)19-7-5-6-18(14-19)23-12-10-21(29(34)36)15-24(23)30(37)38/h2-16,27,35H,17H2,1H3,(H3,32,33)(H2,34,36)(H,37,38)/t27-,31+/m0/s1

>  <InChIKey>  (2) 
DPAVVGLNAXECAW-JTSJOTPCSA-N

>  <SMILES>  (2) 
[H]/N=C(/c1ccc2c(c1)[C@@](C[C@H](N2)c3cccc(c3)c4ccc(cc4C(=O)O)C(=O)N)(C)c5ccccc5)\N

>  <MissingHeavyAtoms>  (2) 
0

>  <Model>  (2) 
1

>  <AltIds>  (2) 


>  <pKI>  (2) 
8.82

>  <ChemblID>  (2) 
CHEMBL3127473

>  <standardized_canonical_smiles>  (2) 
C[C@]1(c2ccccc2)C[C@@H](c2cccc(-c3ccc(C(N)=O)cc3C(=O)O)c2)Nc2ccc(C(=N)N)cc21

$$$$
4TY6_39D_A_301
     RDKit          3D

 33 36  0  0  0  0  0  0  0  0999 V2000
   39.0220  -16.4390   27.8590 C   0  0  0  0  0  0  0  0  0  0  0  0
   38.2340  -17.5600   28.5660 C   0  0  0  0  0  0  0  0  0  0  0  0
   39.1690  -18.6170   29.1360 C   0  0  0  0  0  0  0  0  0  0  0  0
   38.0840  -15.3340   27.3360 C   0  0  0  0  0  0  0  0  0  0  0  0
   37.2080  -14.7530   28.4410 C   0  0  0  0  0  0  0  0  0  0  0  0
   36.4210  -15.8830   29.0870 C   0  0  0  0  0  0  0  0  0  0  0  0
   37.3430  -16.9660   29.6630 C   0  0  0  0  0  0  0  0  0  0  0  0
   36.2910  -13.6380   27.9290 C   0  0  0  0  0  0  0  0  0  0  0  0
   41.4320  -20.7600   28.9200 C   0  0  0  0  0  0  0  0  0  0  0  0
   39.9430  -20.9140   28.9150 C   0  0  0  0  0  0  0  0  0  0  0  0
   47.0600  -20.8330   30.6920 C   0  0  0  0  0  0  0  0  0  0  0  0
   40.2460  -23.4010   28.5920 C   0  0  0  0  0  0  0  0  0  0  0  0
   40.0220  -23.9040   29.8670 C   0  0  0  0  0  0  0  0  0  0  0  0
   40.7590  -24.9770   30.3470 C   0  0  0  0  0  0  0  0  0  0  0  0
   41.7310  -25.5590   29.5590 C   0  0  0  0  0  0  0  0  0  0  0  0
   41.9760  -25.0590   28.2940 C   0  0  0  0  0  0  0  0  0  0  0  0
   41.2350  -23.9870   27.8140 C   0  0  0  0  0  0  0  0  0  0  0  0
   42.2290  -21.0200   29.9430 N   0  0  0  0  0  0  0  0  0  0  0  0
   43.5090  -20.8470   29.4510 C   0  0  0  0  0  0  0  0  0  0  0  0
   43.4500  -20.4850   28.1350 C   0  0  0  0  0  0  0  0  0  0  0  0
   42.1290  -20.4180   27.8140 N   0  0  0  0  0  0  0  0  0  0  0  0
   39.2590  -19.7350   28.4120 N   0  0  0  0  0  0  0  0  0  0  0  0
   39.5270  -22.1610   28.1150 C   0  0  0  0  0  0  0  0  0  0  0  0
   39.7520  -18.4660   30.2140 O   0  0  0  0  0  0  0  0  0  0  0  0
   37.0100  -12.4680   27.4140 N   0  0  0  0  0  0  0  0  0  0  0  0
   44.6840  -21.0560   30.3130 C   0  0  0  0  0  0  0  0  0  0  0  0
   45.9240  -20.5300   29.9580 C   0  0  0  0  0  0  0  0  0  0  0  0
   46.9840  -21.6320   31.8310 C   0  0  0  0  0  0  0  0  0  0  0  0
   45.7340  -22.1270   32.2070 C   0  0  0  0  0  0  0  0  0  0  0  0
   44.6050  -21.8520   31.4530 C   0  0  0  0  0  0  0  0  0  0  0  0
   48.2820  -21.9580   32.5610 C   0  0  0  0  0  0  0  0  0  0  0  0
   49.3750  -21.5590   32.0880 O   0  0  0  0  0  0  0  0  0  0  0  0
   48.2210  -22.6690   33.6790 N   0  0  0  0  0  0  0  0  0  0  0  0
  2  1  1  0
  4  1  1  0
  3  2  1  0
  7  2  1  0
 22  3  1  0
 24  3  2  0
  5  4  1  0
  6  5  1  0
  8  5  1  0
  7  6  1  0
 25  8  1  0
 10  9  1  0
 18  9  2  0
 21  9  1  0
 22 10  1  0
 23 10  1  0
 27 11  2  0
 28 11  1  0
 13 12  2  0
 17 12  1  0
 23 12  1  0
 14 13  1  0
 15 14  2  0
 16 15  1  0
 17 16  2  0
 19 18  1  0
 20 19  2  0
 26 19  1  0
 21 20  1  0
 27 26  1  0
 30 26  2  0
 29 28  2  0
 31 28  1  0
 30 29  1  0
 32 31  2  0
 33 31  1  0
A    1
C18
A    2
C17
A    3
C15
A    4
C19
A    5
C20
A    6
C21
A    7
C22
A    8
C23
A    9
C11
A   10
C12
A   11
C27
A   12
C1
A   13
C2
A   14
C3
A   15
C4
A   16
C5
A   17
C6
A   18
N7
A   19
C8
A   20
C9
A   21
N10
A   22
N13
A   23
C14
A   24
O16
A   25
N24
A   26
C25
A   27
C26
A   28
C28
A   29
C29
A   30
C30
A   31
C31
A   32
O32
A   33
N33
M  END
>  <Id>  (3) 
4TY6_39D_A_301

>  <ChainId>  (3) 
A

>  <AsymId>  (3) 
C

>  <SeqNum>  (3) 
301

>  <Name>  (3) 
4-{2-[(1S)-1-({[trans-4-(aminomethyl)cyclohexyl]carbonyl}amino)-2-phenylethyl]-1H-imidazol-4-yl}benzamide

>  <SystematicName>  (3) 
4-[2-[(1S)-1-[[4-(aminomethyl)cyclohexyl]carbonylamino]-2-phenyl-ethyl]-1H-imidazol-4-yl]benzamide

>  <Synonyms>  (3) 


>  <Type>  (3) 
NON-POLYMER

>  <Formula>  (3) 
C26 H31 N5 O2

>  <ObservedFormula>  (3) 
C26 N5 O2

>  <MolecularWeight>  (3) 
445.557

>  <ModifiedDate>  (3) 
2014-11-28

>  <Parent>  (3) 


>  <OneLetterCode>  (3) 


>  <SubcomponentList>  (3) 


>  <AmbiguousFlag>  (3) 
N

>  <InsertionCode>  (3) 


>  <InstanceId>  (3) 
4TY6_39D_A_301

>  <ChemCompId>  (3) 
39D

>  <PdbId>  (3) 
4TY6

>  <ResidueNumber>  (3) 
301

>  <InChI>  (3) 
InChI=1S/C26H31N5O2/c27-15-18-6-8-21(9-7-18)26(33)31-22(14-17-4-2-1-3-5-17)25-29-16-23(30-25)19-10-12-20(13-11-19)24(28)32/h1-5,10-13,16,18,21-22H,6-9,14-15,27H2,(H2,28,32)(H,29,30)(H,31,33)/t18-,21-,22-/m0/s1

>  <InChIKey>  (3) 
UXCQKLRVLBOFGG-NYVOZVTQSA-N

>  <SMILES>  (3) 
c1ccc(cc1)C[C@@H](c2[nH]cc(n2)c3ccc(cc3)C(=O)N)NC(=O)C4CCC(CC4)CN

>  <MissingHeavyAtoms>  (3) 
0

>  <Model>  (3) 
1

>  <AltIds>  (3) 


>  <pKI>  (3) 
7.52

>  <ChemblID>  (3) 
CHEMBL3355670

>  <standardized_canonical_smiles>  (3) 
NC[C@H]1CC[C@H](C(=O)N[C@@H](Cc2ccccc2)c2nc(-c3ccc(C(N)=O)cc3)c[nH]2)CC1

$$$$
4WXI_3VM_A_301
     RDKit          3D

 35 39  0  0  0  0  0  0  0  0999 V2000
   44.6710  -21.0240   29.9870 C   0  0  0  0  0  0  0  0  0  0  0  0
   48.0600  -21.7420   32.3490 C   0  0  0  0  0  0  0  0  0  0  0  0
   41.2770  -20.5920   28.4550 C   0  0  0  0  0  0  0  0  0  0  0  0
   46.9880  -20.8590   30.6150 C   0  0  0  0  0  0  0  0  0  0  0  0
   39.7930  -23.1480   28.7650 C   0  0  0  0  0  0  0  0  0  0  0  0
   38.9350  -18.3080   29.1450 C   0  0  0  0  0  0  0  0  0  0  0  0
   37.0570  -16.6750   29.5400 C   0  0  0  0  0  0  0  0  0  0  0  0
   38.8170  -16.1700   27.7430 C   0  0  0  0  0  0  0  0  0  0  0  0
   36.1690  -15.6170   28.8960 C   0  0  0  0  0  0  0  0  0  0  0  0
   37.9120  -15.0640   27.1730 C   0  0  0  0  0  0  0  0  0  0  0  0
   38.0460  -17.2550   28.5220 C   0  0  0  0  0  0  0  0  0  0  0  0
   42.8720  -20.3320   26.7800 C   0  0  0  0  0  0  0  0  0  0  0  0
   46.7740  -21.6190   31.7730 C   0  0  0  0  0  0  0  0  0  0  0  0
   36.0570  -13.4210   27.7670 C   0  0  0  0  0  0  0  0  0  0  0  0
   41.1530  -25.3760   29.7200 C   0  0  0  0  0  0  0  0  0  0  0  0
   41.1770  -25.0580   28.3560 C   0  0  0  0  0  0  0  0  0  0  0  0
   40.4590  -24.5740   30.6120 C   0  0  0  0  0  0  0  0  0  0  0  0
   45.4740  -22.1030   32.0520 C   0  0  0  0  0  0  0  0  0  0  0  0
   44.4390  -21.8040   31.1440 C   0  0  0  0  0  0  0  0  0  0  0  0
   40.5010  -23.9420   27.8650 C   0  0  0  0  0  0  0  0  0  0  0  0
   39.7900  -23.4480   30.1310 C   0  0  0  0  0  0  0  0  0  0  0  0
   43.9010  -20.5410   27.6910 C   0  0  0  0  0  0  0  0  0  0  0  0
   45.9570  -20.5280   29.7090 C   0  0  0  0  0  0  0  0  0  0  0  0
   42.2450  -20.8290   29.4320 C   0  0  0  0  0  0  0  0  0  0  0  0
   43.5890  -20.7700   29.0400 C   0  0  0  0  0  0  0  0  0  0  0  0
   37.0070  -14.4950   28.2670 C   0  0  0  0  0  0  0  0  0  0  0  0
   39.1080  -21.8990   28.2890 C   0  0  0  0  0  0  0  0  0  0  0  0
   39.8060  -20.6420   28.8440 C   0  0  0  0  0  0  0  0  0  0  0  0
   41.5630  -20.3640   27.1330 N   0  0  0  0  0  0  0  0  0  0  0  0
   48.9900  -21.0540   31.6710 N   0  0  0  0  0  0  0  0  0  0  0  0
   48.3270  -20.5490   30.6250 N   0  0  0  0  0  0  0  0  0  0  0  0
   48.2680  -22.4190   33.5130 N   0  0  0  0  0  0  0  0  0  0  0  0
   36.7440  -12.2190   27.4830 N   0  0  0  0  0  0  0  0  0  0  0  0
   39.0390  -19.4840   28.4300 N   0  0  0  0  0  0  0  0  0  0  0  0
   39.5010  -18.0990   30.2030 O   0  0  0  0  0  0  0  0  0  0  0  0
 19  1  1  0
 23  1  2  0
 25  1  1  0
 13  2  2  0
 30  2  1  0
 32  2  1  0
 24  3  1  0
 28  3  1  0
 29  3  2  0
 13  4  1  0
 23  4  1  0
 31  4  2  0
 20  5  2  0
 21  5  1  0
 27  5  1  0
 11  6  1  0
 34  6  1  0
 35  6  2  0
  9  7  1  0
 11  7  1  0
 10  8  1  0
 11  8  1  0
 26  9  1  0
 26 10  1  0
 22 12  2  0
 29 12  1  0
 18 13  1  0
 26 14  1  0
 33 14  1  0
 16 15  2  0
 17 15  1  0
 20 16  1  0
 21 17  2  0
 19 18  2  0
 25 22  1  0
 25 24  2  0
 28 27  1  0
 34 28  1  0
 31 30  1  0
A    1
C13
A    2
C18
A    3
C17
A    4
C16
A    5
C15
A    6
C19
A    7
C20
A    8
C21
A    9
C22
A   10
C23
A   11
C24
A   12
C11
A   13
C12
A   14
C27
A   15
C1
A   16
C2
A   17
C3
A   18
C4
A   19
C5
A   20
C6
A   21
C7
A   22
C8
A   23
C9
A   24
C10
A   25
C14
A   26
C25
A   27
C26
A   28
C28
A   29
N29
A   30
N30
A   31
N31
A   32
N32
A   33
N33
A   34
N34
A   35
O35
M  END
>  <Id>  (4) 
4WXI_3VM_A_301

>  <ChainId>  (4) 
A

>  <AsymId>  (4) 
B

>  <SeqNum>  (4) 
301

>  <Name>  (4) 
trans-N-{(1S)-1-[4-(3-amino-2H-indazol-6-yl)pyridin-2-yl]-2-phenylethyl}-4-(aminomethyl)cyclohexanecarboxamide

>  <SystematicName>  (4) 
4-(aminomethyl)-N-[(1S)-1-[4-(3-azanyl-2H-indazol-6-yl)pyridin-2-yl]-2-phenyl-ethyl]cyclohexane-1-carboxamide

>  <Synonyms>  (4) 


>  <Type>  (4) 
NON-POLYMER

>  <Formula>  (4) 
C28 H32 N6 O

>  <ObservedFormula>  (4) 
C28 N6 O

>  <MolecularWeight>  (4) 
468.593

>  <ModifiedDate>  (4) 
2015-01-23

>  <Parent>  (4) 


>  <OneLetterCode>  (4) 


>  <SubcomponentList>  (4) 


>  <AmbiguousFlag>  (4) 
N

>  <InsertionCode>  (4) 


>  <InstanceId>  (4) 
4WXI_3VM_A_301

>  <ChemCompId>  (4) 
3VM

>  <PdbId>  (4) 
4WXI

>  <ResidueNumber>  (4) 
301

>  <InChI>  (4) 
InChI=1S/C28H32N6O/c29-17-19-6-8-20(9-7-19)28(35)32-26(14-18-4-2-1-3-5-18)25-16-22(12-13-31-25)21-10-11-23-24(15-21)33-34-27(23)30/h1-5,10-13,15-16,19-20,26H,6-9,14,17,29H2,(H,32,35)(H3,30,33,34)/t19-,20-,26-/m0/s1

>  <InChIKey>  (4) 
ABPMTNUZKFZRKL-DYLHXGEVSA-N

>  <SMILES>  (4) 
c1ccc(cc1)C[C@@H](c2cc(ccn2)c3ccc4c(c3)n[nH]c4N)NC(=O)C5CCC(CC5)CN

>  <MissingHeavyAtoms>  (4) 
0

>  <Model>  (4) 
1

>  <AltIds>  (4) 


>  <pKI>  (4) 
5.97

>  <ChemblID>  (4) 
CHEMBL3393387

>  <standardized_canonical_smiles>  (4) 
NC[C@H]1CC[C@H](C(=O)N[C@H](Cc2ccccc2)c2cc(-c3ccc4c(N)[nH]nc4c3)ccn2)CC1

$$$$
4X6M_3Y3_A_301
     RDKit          3D

 38 42  0  0  0  0  0  0  0  0999 V2000
   45.3510  -22.3060   32.1490 C   0  0  0  0  0  0  0  0  0  0  0  0
   46.7930  -20.8880   30.8400 C   0  0  0  0  0  0  0  0  0  0  0  0
   46.6230  -21.7880   31.9100 C   0  0  0  0  0  0  0  0  0  0  0  0
   47.9760  -21.9750   32.4300 C   0  0  0  0  0  0  0  0  0  0  0  0
   40.5490  -23.9600   27.4750 C   0  0  0  0  0  0  0  0  0  0  0  0
   39.7890  -23.2030   28.3520 C   0  0  0  0  0  0  0  0  0  0  0  0
   39.6990  -23.6230   29.6750 C   0  0  0  0  0  0  0  0  0  0  0  0
   40.4180  -24.7160   30.1240 C   0  0  0  0  0  0  0  0  0  0  0  0
   44.4760  -21.0920   30.2490 C   0  0  0  0  0  0  0  0  0  0  0  0
   45.7280  -20.5220   30.0220 C   0  0  0  0  0  0  0  0  0  0  0  0
   35.0380  -14.3760   28.9740 C   0  0  0  0  0  0  0  0  0  0  0  0
   39.2560  -21.8530   27.9320 C   0  0  0  0  0  0  0  0  0  0  0  0
   35.6470  -13.3280   28.3230 C   0  0  0  0  0  0  0  0  0  0  0  0
   37.3390  -17.2730   28.2460 C   0  0  0  0  0  0  0  0  0  0  0  0
   38.5580  -17.3230   29.0350 N   0  0  0  0  0  0  0  0  0  0  0  0
   39.7960  -20.7180   28.8200 C   0  0  0  0  0  0  0  0  0  0  0  0
   39.2220  -19.4330   28.4640 N   0  0  0  0  0  0  0  0  0  0  0  0
   41.2900  -20.6570   28.7990 C   0  0  0  0  0  0  0  0  0  0  0  0
   42.0180  -20.3760   27.6470 N   0  0  0  0  0  0  0  0  0  0  0  0
   43.3330  -20.4860   28.0070 C   0  0  0  0  0  0  0  0  0  0  0  0
   43.3520  -20.8080   29.3380 C   0  0  0  0  0  0  0  0  0  0  0  0
   42.0680  -20.9080   29.8260 N   0  0  0  0  0  0  0  0  0  0  0  0
   44.5870  -20.2590   26.8710 Cl  0  0  0  0  0  0  0  0  0  0  0  0
   44.2970  -21.9720   31.3200 C   0  0  0  0  0  0  0  0  0  0  0  0
   48.1190  -20.5920   30.7760 N   0  0  0  0  0  0  0  0  0  0  0  0
   48.8500  -21.2560   31.7310 N   0  0  0  0  0  0  0  0  0  0  0  0
   48.3430  -22.7090   33.4930 N   0  0  0  0  0  0  0  0  0  0  0  0
   41.2120  -25.4240   29.2540 C   0  0  0  0  0  0  0  0  0  0  0  0
   41.2680  -25.0550   27.9270 C   0  0  0  0  0  0  0  0  0  0  0  0
   39.1160  -18.4800   29.4280 C   0  0  0  0  0  0  0  0  0  0  0  0
   39.5680  -18.6330   30.5600 O   0  0  0  0  0  0  0  0  0  0  0  0
   36.7220  -15.9050   28.2120 C   0  0  0  0  0  0  0  0  0  0  0  0
   37.3630  -14.8440   27.5360 C   0  0  0  0  0  0  0  0  0  0  0  0
   36.8150  -13.5660   27.6130 C   0  0  0  0  0  0  0  0  0  0  0  0
   35.5520  -15.6490   28.9190 C   0  0  0  0  0  0  0  0  0  0  0  0
   33.6180  -14.0840   29.9390 Cl  0  0  0  0  0  0  0  0  0  0  0  0
   38.6330  -15.0200   26.7240 C   0  0  0  0  0  0  0  0  0  0  0  0
   38.3880  -15.2720   25.2820 N   0  0  0  0  0  0  0  0  0  0  0  0
  3  1  2  0
 24  1  1  0
  3  2  1  0
 10  2  2  0
 25  2  1  0
  4  3  1  0
 26  4  2  0
 27  4  1  0
  6  5  2  0
 29  5  1  0
  7  6  1  0
 12  6  1  0
  8  7  2  0
 28  8  1  0
 10  9  1  0
 21  9  1  0
 24  9  2  0
 13 11  2  0
 35 11  1  0
 36 11  1  0
 16 12  1  0
 34 13  1  0
 15 14  1  0
 32 14  1  0
 30 15  1  0
 17 16  1  0
 18 16  1  0
 30 17  1  0
 19 18  1  0
 22 18  2  0
 20 19  1  0
 21 20  2  0
 23 20  1  0
 22 21  1  0
 26 25  1  0
 29 28  2  0
 31 30  2  0
 33 32  1  0
 35 32  2  0
 34 33  2  0
 37 33  1  0
 38 37  1  0
A    1
C13
A    2
C16
A    3
C15
A    4
C19
A    5
C21
A    6
C22
A    7
C23
A    8
C24
A    9
C11
A   10
C12
A   11
C34
A   12
C27
A   13
C33
A   14
C1
A   15
N2
A   16
C3
A   17
N4
A   18
C5
A   19
N6
A   20
C7
A   21
C8
A   22
N9
A   23
CL
A   24
C14
A   25
N17
A   26
N18
A   27
N20
A   28
C25
A   29
C26
A   30
C28
A   31
O29
A   32
C30
A   33
C31
A   34
C32
A   35
C35
A   36
CL1
A   37
C37
A   38
N38
M  END
>  <Id>  (5) 
4X6M_3Y3_A_301

>  <ChainId>  (5) 
A

>  <AsymId>  (5) 
B

>  <SeqNum>  (5) 
301

>  <Name>  (5) 
1-{(1S)-1-[4-(3-amino-1H-indazol-6-yl)-5-chloro-1H-imidazol-2-yl]-2-phenylethyl}-3-[2-(aminomethyl)-5-chlorobenzyl]urea

>  <SystematicName>  (5) 
1-[[2-(aminomethyl)-5-chloranyl-phenyl]methyl]-3-[(1S)-1-[4-(3-azanyl-1H-indazol-6-yl)-5-chloranyl-1H-imidazol-2-yl]-2-phenyl-ethyl]urea

>  <Synonyms>  (5) 


>  <Type>  (5) 
NON-POLYMER

>  <Formula>  (5) 
C27 H26 Cl2 N8 O

>  <ObservedFormula>  (5) 
C27 Cl2 N8 O

>  <MolecularWeight>  (5) 
549.454

>  <ModifiedDate>  (5) 
2015-02-13

>  <Parent>  (5) 


>  <OneLetterCode>  (5) 


>  <SubcomponentList>  (5) 


>  <AmbiguousFlag>  (5) 
N

>  <InsertionCode>  (5) 


>  <InstanceId>  (5) 
4X6M_3Y3_A_301

>  <ChemCompId>  (5) 
3Y3

>  <PdbId>  (5) 
4X6M

>  <ResidueNumber>  (5) 
301

>  <InChI>  (5) 
InChI=1S/C27H26Cl2N8O/c28-19-8-6-17(13-30)18(11-19)14-32-27(38)33-22(10-15-4-2-1-3-5-15)26-34-23(24(29)35-26)16-7-9-20-21(12-16)36-37-25(20)31/h1-9,11-12,22H,10,13-14,30H2,(H,34,35)(H3,31,36,37)(H2,32,33,38)/t22-/m0/s1

>  <InChIKey>  (5) 
PKKLAAQPYSEUAW-QFIPXVFZSA-N

>  <SMILES>  (5) 
c1ccc(cc1)C[C@@H](c2[nH]c(c(n2)c3ccc4c(c3)[nH]nc4N)Cl)NC(=O)NCc5cc(ccc5CN)Cl

>  <MissingHeavyAtoms>  (5) 
0

>  <Model>  (5) 
1

>  <AltIds>  (5) 


>  <pKI>  (5) 
8.24

>  <ChemblID>  (5) 
CHEMBL3398635

>  <standardized_canonical_smiles>  (5) 
NCc1ccc(Cl)cc1CNC(=O)N[C@@H](Cc1ccccc1)c1nc(-c2ccc3c(N)[nH]nc3c2)c(Cl)[nH]1

$$$$
4X6N_3Y5_A_301
     RDKit          3D

 41 46  0  0  0  0  0  0  0  0999 V2000
   42.2440  -21.0170   29.6960 N   0  0  0  0  0  0  0  0  0  0  0  0
   43.5340  -20.9760   29.2170 C   0  0  0  0  0  0  0  0  0  0  0  0
   45.6100  -22.4350   31.9940 C   0  0  0  0  0  0  0  0  0  0  0  0
   45.8940  -20.6010   29.8880 C   0  0  0  0  0  0  0  0  0  0  0  0
   44.6540  -21.1820   30.1540 C   0  0  0  0  0  0  0  0  0  0  0  0
   44.5170  -22.0760   31.2240 C   0  0  0  0  0  0  0  0  0  0  0  0
   39.2750  -18.6130   29.2590 C   0  0  0  0  0  0  0  0  0  0  0  0
   37.5920  -17.3520   27.9170 C   0  0  0  0  0  0  0  0  0  0  0  0
   36.9180  -15.9940   27.9020 C   0  0  0  0  0  0  0  0  0  0  0  0
   43.5240  -20.7600   27.8810 C   0  0  0  0  0  0  0  0  0  0  0  0
   35.6930  -13.4720   27.9530 C   0  0  0  0  0  0  0  0  0  0  0  0
   40.7960  -24.1520   27.4170 C   0  0  0  0  0  0  0  0  0  0  0  0
   40.0070  -23.3810   28.2610 C   0  0  0  0  0  0  0  0  0  0  0  0
   39.8240  -23.8150   29.5680 C   0  0  0  0  0  0  0  0  0  0  0  0
   40.4590  -24.9540   30.0360 C   0  0  0  0  0  0  0  0  0  0  0  0
   41.2580  -25.6960   29.1960 C   0  0  0  0  0  0  0  0  0  0  0  0
   41.4190  -25.2990   27.8810 C   0  0  0  0  0  0  0  0  0  0  0  0
   39.4860  -22.0340   27.8090 C   0  0  0  0  0  0  0  0  0  0  0  0
   39.9830  -20.8730   28.6890 C   0  0  0  0  0  0  0  0  0  0  0  0
   39.3640  -19.6040   28.3140 N   0  0  0  0  0  0  0  0  0  0  0  0
   41.4790  -20.8210   28.6440 C   0  0  0  0  0  0  0  0  0  0  0  0
   42.2030  -20.6550   27.5070 N   0  0  0  0  0  0  0  0  0  0  0  0
   44.7810  -20.6060   26.7500 Cl  0  0  0  0  0  0  0  0  0  0  0  0
   38.6810  -17.4510   28.8860 N   0  0  0  0  0  0  0  0  0  0  0  0
   39.7780  -18.7450   30.3790 O   0  0  0  0  0  0  0  0  0  0  0  0
   37.4050  -14.9500   27.0960 C   0  0  0  0  0  0  0  0  0  0  0  0
   36.7900  -13.6950   27.1330 C   0  0  0  0  0  0  0  0  0  0  0  0
   35.2130  -14.5110   28.7250 C   0  0  0  0  0  0  0  0  0  0  0  0
   35.8140  -15.7530   28.7150 C   0  0  0  0  0  0  0  0  0  0  0  0
   33.7810  -14.2700   29.7020 Cl  0  0  0  0  0  0  0  0  0  0  0  0
   38.5550  -15.1180   26.2590 N   0  0  0  0  0  0  0  0  0  0  0  0
   38.7170  -15.0860   24.9260 C   0  0  0  0  0  0  0  0  0  0  0  0
   39.9560  -15.3660   24.6260 N   0  0  0  0  0  0  0  0  0  0  0  0
   40.5820  -15.5730   25.8130 N   0  0  0  0  0  0  0  0  0  0  0  0
   39.7600  -15.4170   26.8040 N   0  0  0  0  0  0  0  0  0  0  0  0
   46.8730  -21.9220   31.6990 C   0  0  0  0  0  0  0  0  0  0  0  0
   46.9960  -21.0060   30.6350 C   0  0  0  0  0  0  0  0  0  0  0  0
   48.3200  -20.7210   30.5150 N   0  0  0  0  0  0  0  0  0  0  0  0
   49.0680  -21.3840   31.4470 N   0  0  0  0  0  0  0  0  0  0  0  0
   48.2430  -22.1210   32.1920 C   0  0  0  0  0  0  0  0  0  0  0  0
   48.6770  -22.8550   33.2210 N   0  0  0  0  0  0  0  0  0  0  0  0
  2  1  1  0
 21  1  2  0
  5  2  1  0
 10  2  2  0
  6  3  2  0
 36  3  1  0
  5  4  2  0
 37  4  1  0
  6  5  1  0
 20  7  1  0
 24  7  1  0
 25  7  2  0
  9  8  1  0
 24  8  1  0
 26  9  2  0
 29  9  1  0
 22 10  1  0
 23 10  1  0
 27 11  2  0
 28 11  1  0
 13 12  2  0
 17 12  1  0
 14 13  1  0
 18 13  1  0
 15 14  2  0
 16 15  1  0
 17 16  2  0
 19 18  1  0
 20 19  1  0
 21 19  1  0
 22 21  1  0
 27 26  1  0
 31 26  1  0
 29 28  2  0
 30 28  1  0
 32 31  1  0
 35 31  1  0
 33 32  2  0
 34 33  1  0
 35 34  2  0
 37 36  2  0
 40 36  1  0
 38 37  1  0
 39 38  1  0
 40 39  2  0
 41 40  1  0
A    1
N14
A    2
C13
A    3
C18
A    4
C17
A    5
C16
A    6
C19
A    7
C20
A    8
C23
A    9
C24
A   10
C12
A   11
C27
A   12
C1
A   13
C2
A   14
C3
A   15
C4
A   16
C5
A   17
C6
A   18
C7
A   19
C8
A   20
N9
A   21
C10
A   22
N11
A   23
CL
A   24
N21
A   25
O22
A   26
C25
A   27
C26
A   28
C28
A   29
C29
A   30
CL2
A   31
N31
A   32
C32
A   33
N33
A   34
N34
A   35
N35
A   36
C36
A   37
C37
A   38
N38
A   39
N39
A   40
C40
A   41
N41
M  END
>  <Id>  (6) 
4X6N_3Y5_A_301

>  <ChainId>  (6) 
A

>  <AsymId>  (6) 
C

>  <SeqNum>  (6) 
301

>  <Name>  (6) 
1-{(1S)-1-[4-(3-amino-1H-indazol-6-yl)-5-chloro-1H-imidazol-2-yl]-2-phenylethyl}-3-[5-chloro-2-(1H-tetrazol-1-yl)benzyl]urea

>  <SystematicName>  (6) 
1-[(1S)-1-[4-(3-azanyl-1H-indazol-6-yl)-5-chloranyl-1H-imidazol-2-yl]-2-phenyl-ethyl]-3-[[5-chloranyl-2-(1,2,3,4-tetrazol-1-yl)phenyl]methyl]urea

>  <Synonyms>  (6) 


>  <Type>  (6) 
NON-POLYMER

>  <Formula>  (6) 
C27 H23 Cl2 N11 O

>  <ObservedFormula>  (6) 
C27 Cl2 N11 O

>  <MolecularWeight>  (6) 
588.451

>  <ModifiedDate>  (6) 
2015-02-13

>  <Parent>  (6) 


>  <OneLetterCode>  (6) 


>  <SubcomponentList>  (6) 


>  <AmbiguousFlag>  (6) 
N

>  <InsertionCode>  (6) 


>  <InstanceId>  (6) 
4X6N_3Y5_A_301

>  <ChemCompId>  (6) 
3Y5

>  <PdbId>  (6) 
4X6N

>  <ResidueNumber>  (6) 
301

>  <InChI>  (6) 
InChI=1S/C27H23Cl2N11O/c28-18-7-9-22(40-14-32-38-39-40)17(11-18)13-31-27(41)33-21(10-15-4-2-1-3-5-15)26-34-23(24(29)35-26)16-6-8-19-20(12-16)36-37-25(19)30/h1-9,11-12,14,21H,10,13H2,(H,34,35)(H3,30,36,37)(H2,31,33,41)/t21-/m0/s1

>  <InChIKey>  (6) 
LCVIWSIVTGTOCS-NRFANRHFSA-N

>  <SMILES>  (6) 
c1ccc(cc1)C[C@@H](c2[nH]c(c(n2)c3ccc4c(c3)[nH]nc4N)Cl)NC(=O)NCc5cc(ccc5n6cnnn6)Cl

>  <MissingHeavyAtoms>  (6) 
0

>  <Model>  (6) 
1

>  <AltIds>  (6) 


>  <pKI>  (6) 
8.82

>  <ChemblID>  (6) 
CHEMBL3398636

>  <standardized_canonical_smiles>  (6) 
Nc1[nH]nc2cc(-c3nc([C@H](Cc4ccccc4)NC(=O)NCc4cc(Cl)ccc4-n4cnnn4)[nH]c3Cl)ccc12

$$$$
4X6O_3Y4_A_301
     RDKit          3D

 42 46  0  0  0  0  0  0  0  0999 V2000
   37.4310  -17.2830   28.0350 C   0  0  0  0  0  0  0  0  0  0  0  0
   36.7910  -15.9060   27.9300 C   0  0  0  0  0  0  0  0  0  0  0  0
   38.5490  -17.2490   29.1090 C   0  0  0  0  0  0  0  0  0  0  0  0
   39.2690  -18.5290   29.4730 C   0  0  0  0  0  0  0  0  0  0  0  0
   38.4980  -15.1320   24.9770 C   0  0  0  0  0  0  0  0  0  0  0  0
   39.9520  -20.7580   28.8320 C   0  0  0  0  0  0  0  0  0  0  0  0
   39.8120  -23.7900   29.6700 C   0  0  0  0  0  0  0  0  0  0  0  0
   33.6880  -14.0890   29.6900 Cl  0  0  0  0  0  0  0  0  0  0  0  0
   35.0900  -14.3900   28.6980 C   0  0  0  0  0  0  0  0  0  0  0  0
   35.6140  -13.3640   27.9350 C   0  0  0  0  0  0  0  0  0  0  0  0
   36.7440  -13.6050   27.1580 C   0  0  0  0  0  0  0  0  0  0  0  0
   37.3300  -14.8710   27.1510 C   0  0  0  0  0  0  0  0  0  0  0  0
   38.4730  -15.1030   26.3290 N   0  0  0  0  0  0  0  0  0  0  0  0
   39.7330  -15.3710   26.7590 N   0  0  0  0  0  0  0  0  0  0  0  0
   40.4470  -15.5580   25.6900 N   0  0  0  0  0  0  0  0  0  0  0  0
   39.7060  -15.4080   24.5670 N   0  0  0  0  0  0  0  0  0  0  0  0
   35.6610  -15.6470   28.7070 C   0  0  0  0  0  0  0  0  0  0  0  0
   39.7750  -18.6700   30.5860 O   0  0  0  0  0  0  0  0  0  0  0  0
   39.3280  -19.4740   28.5240 N   0  0  0  0  0  0  0  0  0  0  0  0
   39.3950  -21.9350   28.0020 C   0  0  0  0  0  0  0  0  0  0  0  0
   40.0200  -23.2550   28.3970 C   0  0  0  0  0  0  0  0  0  0  0  0
   40.5610  -24.8630   30.1230 C   0  0  0  0  0  0  0  0  0  0  0  0
   41.5100  -25.4440   29.3060 C   0  0  0  0  0  0  0  0  0  0  0  0
   41.6950  -24.9600   28.0210 C   0  0  0  0  0  0  0  0  0  0  0  0
   40.9500  -23.8780   27.5670 C   0  0  0  0  0  0  0  0  0  0  0  0
   41.4520  -20.7160   28.8000 C   0  0  0  0  0  0  0  0  0  0  0  0
   42.2330  -20.9820   29.8930 N   0  0  0  0  0  0  0  0  0  0  0  0
   43.5520  -20.9330   29.4960 C   0  0  0  0  0  0  0  0  0  0  0  0
   43.5330  -20.6250   28.1300 C   0  0  0  0  0  0  0  0  0  0  0  0
   44.8310  -20.4020   27.0230 Cl  0  0  0  0  0  0  0  0  0  0  0  0
   42.2450  -20.4920   27.7150 N   0  0  0  0  0  0  0  0  0  0  0  0
   44.6250  -21.2150   30.4640 C   0  0  0  0  0  0  0  0  0  0  0  0
   45.9030  -20.6820   30.2930 C   0  0  0  0  0  0  0  0  0  0  0  0
   46.9280  -21.0160   31.1650 C   0  0  0  0  0  0  0  0  0  0  0  0
   46.6830  -21.8640   32.2480 C   0  0  0  0  0  0  0  0  0  0  0  0
   45.4010  -22.3670   32.4390 C   0  0  0  0  0  0  0  0  0  0  0  0
   44.3890  -22.0530   31.5530 C   0  0  0  0  0  0  0  0  0  0  0  0
   47.6690  -22.2840   33.1770 N   0  0  0  0  0  0  0  0  0  0  0  0
   48.9710  -21.8830   33.2400 C   0  0  0  0  0  0  0  0  0  0  0  0
   49.5510  -21.1740   32.4420 O   0  0  0  0  0  0  0  0  0  0  0  0
   49.5330  -22.4000   34.3470 O   0  0  0  0  0  0  0  0  0  0  0  0
   50.9710  -22.2360   34.4710 C   0  0  0  0  0  0  0  0  0  0  0  0
  2  1  1  0
  3  1  1  0
 12  2  1  0
 17  2  2  0
  4  3  1  0
 18  4  2  0
 19  4  1  0
 13  5  1  0
 16  5  2  0
 19  6  1  0
 20  6  1  0
 26  6  1  0
 21  7  2  0
 22  7  1  0
  9  8  1  0
 10  9  2  0
 17  9  1  0
 11 10  1  0
 12 11  2  0
 13 12  1  0
 14 13  1  0
 15 14  2  0
 16 15  1  0
 21 20  1  0
 25 21  1  0
 23 22  2  0
 24 23  1  0
 25 24  2  0
 27 26  1  0
 31 26  2  0
 28 27  1  0
 29 28  2  0
 32 28  1  0
 30 29  1  0
 31 29  1  0
 33 32  2  0
 37 32  1  0
 34 33  1  0
 35 34  2  0
 36 35  1  0
 38 35  1  0
 37 36  2  0
 39 38  1  0
 40 39  2  0
 41 39  1  0
 42 41  1  0
A    1
C17
A    2
C16
A    3
C20
A    4
C23
A    5
C12
A    6
C27
A    7
C33
A    8
CL1
A    9
C2
A   10
C3
A   11
C5
A   12
C7
A   13
N8
A   14
N9
A   15
N10
A   16
N11
A   17
C14
A   18
O24
A   19
N25
A   20
C29
A   21
C32
A   22
C35
A   23
C37
A   24
C39
A   25
C41
A   26
C43
A   27
N44
A   28
C46
A   29
C47
A   30
CL2
A   31
N49
A   32
C50
A   33
C51
A   34
C53
A   35
C55
A   36
C56
A   37
C58
A   38
N60
A   39
C62
A   40
O63
A   41
O64
A   42
C65
M  END
>  <Id>  (7) 
4X6O_3Y4_A_301

>  <ChainId>  (7) 
A

>  <AsymId>  (7) 
B

>  <SeqNum>  (7) 
301

>  <Name>  (7) 
methyl (4-{4-chloro-2-[(1S)-1-({3-[5-chloro-2-(1H-tetrazol-1-yl)phenyl]propanoyl}amino)-2-phenylethyl]-1H-imidazol-5-yl}phenyl)carbamate

>  <SystematicName>  (7) 
methyl N-[4-[4-chloranyl-2-[(1S)-1-[3-[5-chloranyl-2-(1,2,3,4-tetrazol-1-yl)phenyl]propanoylamino]-2-phenyl-ethyl]-1H-imidazol-5-yl]phenyl]carbamate

>  <Synonyms>  (7) 


>  <Type>  (7) 
NON-POLYMER

>  <Formula>  (7) 
C29 H26 Cl2 N8 O3

>  <ObservedFormula>  (7) 
C29 Cl2 N8 O3

>  <MolecularWeight>  (7) 
605.475

>  <ModifiedDate>  (7) 
2015-02-13

>  <Parent>  (7) 


>  <OneLetterCode>  (7) 


>  <SubcomponentList>  (7) 


>  <AmbiguousFlag>  (7) 
N

>  <InsertionCode>  (7) 


>  <InstanceId>  (7) 
4X6O_3Y4_A_301

>  <ChemCompId>  (7) 
3Y4

>  <PdbId>  (7) 
4X6O

>  <ResidueNumber>  (7) 
301

>  <InChI>  (7) 
InChI=1S/C29H26Cl2N8O3/c1-42-29(41)33-22-11-7-19(8-12-22)26-27(31)36-28(35-26)23(15-18-5-3-2-4-6-18)34-25(40)14-9-20-16-21(30)10-13-24(20)39-17-32-37-38-39/h2-8,10-13,16-17,23H,9,14-15H2,1H3,(H,33,41)(H,34,40)(H,35,36)/t23-/m0/s1

>  <InChIKey>  (7) 
QPRIEKZFCOMXST-QHCPKHFHSA-N

>  <SMILES>  (7) 
COC(=O)Nc1ccc(cc1)c2c(nc([nH]2)[C@H](Cc3ccccc3)NC(=O)CCc4cc(ccc4n5cnnn5)Cl)Cl

>  <MissingHeavyAtoms>  (7) 
0

>  <Model>  (7) 
1

>  <AltIds>  (7) 


>  <pKI>  (7) 
8.72

>  <ChemblID>  (7) 
CHEMBL3398640

>  <standardized_canonical_smiles>  (7) 
COC(=O)Nc1ccc(-c2nc([C@H](Cc3ccccc3)NC(=O)CCc3cc(Cl)ccc3-n3cnnn3)[nH]c2Cl)cc1

$$$$
4Y8X_4GR_A_301
     RDKit          3D

 42 46  0  0  0  0  0  0  0  0999 V2000
   39.1580  -18.6420   29.5000 C   0  0  0  0  0  0  0  0  0  0  0  0
   37.4050  -14.8120   26.9790 C   0  0  0  0  0  0  0  0  0  0  0  0
   37.0980  -15.7730   27.9560 C   0  0  0  0  0  0  0  0  0  0  0  0
   37.8610  -17.0190   28.1030 C   0  0  0  0  0  0  0  0  0  0  0  0
   38.4140  -17.3940   29.2450 C   0  0  0  0  0  0  0  0  0  0  0  0
   36.6890  -13.6170   26.9340 C   0  0  0  0  0  0  0  0  0  0  0  0
   35.6160  -13.3990   27.8030 C   0  0  0  0  0  0  0  0  0  0  0  0
   35.2600  -14.3850   28.7000 C   0  0  0  0  0  0  0  0  0  0  0  0
   35.9900  -15.5590   28.7990 C   0  0  0  0  0  0  0  0  0  0  0  0
   40.9800  -23.9490   27.5350 C   0  0  0  0  0  0  0  0  0  0  0  0
   40.0400  -23.3120   28.3400 C   0  0  0  0  0  0  0  0  0  0  0  0
   38.7380  -14.9010   24.7720 C   0  0  0  0  0  0  0  0  0  0  0  0
   40.5310  -24.9190   30.1020 C   0  0  0  0  0  0  0  0  0  0  0  0
   45.7600  -20.6750   30.2360 C   0  0  0  0  0  0  0  0  0  0  0  0
   33.8490  -14.1580   29.7050 Cl  0  0  0  0  0  0  0  0  0  0  0  0
   44.6650  -20.4530   27.0650 Cl  0  0  0  0  0  0  0  0  0  0  0  0
   41.3290  -20.7510   28.7720 C   0  0  0  0  0  0  0  0  0  0  0  0
   42.0620  -20.5130   27.6910 N   0  0  0  0  0  0  0  0  0  0  0  0
   43.3350  -20.6350   28.1410 C   0  0  0  0  0  0  0  0  0  0  0  0
   43.3970  -20.9190   29.4760 C   0  0  0  0  0  0  0  0  0  0  0  0
   42.0860  -20.9850   29.8610 N   0  0  0  0  0  0  0  0  0  0  0  0
   44.4810  -21.2120   30.4170 C   0  0  0  0  0  0  0  0  0  0  0  0
   39.8370  -20.8730   28.8020 C   0  0  0  0  0  0  0  0  0  0  0  0
   39.3830  -22.0150   27.8780 C   0  0  0  0  0  0  0  0  0  0  0  0
   39.2000  -19.5820   28.4910 N   0  0  0  0  0  0  0  0  0  0  0  0
   39.7400  -18.8080   30.5760 O   0  0  0  0  0  0  0  0  0  0  0  0
   38.4780  -15.0370   26.0650 N   0  0  0  0  0  0  0  0  0  0  0  0
   41.6940  -25.0470   28.0130 C   0  0  0  0  0  0  0  0  0  0  0  0
   41.4660  -25.5320   29.2990 C   0  0  0  0  0  0  0  0  0  0  0  0
   39.8180  -23.8170   29.6240 C   0  0  0  0  0  0  0  0  0  0  0  0
   44.2570  -22.0630   31.4950 C   0  0  0  0  0  0  0  0  0  0  0  0
   45.2650  -22.3710   32.3790 C   0  0  0  0  0  0  0  0  0  0  0  0
   46.5590  -21.8810   32.1820 C   0  0  0  0  0  0  0  0  0  0  0  0
   46.8010  -21.0270   31.0920 C   0  0  0  0  0  0  0  0  0  0  0  0
   40.0060  -15.0580   24.5310 N   0  0  0  0  0  0  0  0  0  0  0  0
   40.5730  -15.2540   25.7430 N   0  0  0  0  0  0  0  0  0  0  0  0
   39.6720  -15.2410   26.6800 N   0  0  0  0  0  0  0  0  0  0  0  0
   47.5340  -22.3200   33.1190 N   0  0  0  0  0  0  0  0  0  0  0  0
   48.8700  -22.0220   33.1330 C   0  0  0  0  0  0  0  0  0  0  0  0
   49.4590  -21.3520   32.3170 O   0  0  0  0  0  0  0  0  0  0  0  0
   49.4450  -22.5680   34.2200 O   0  0  0  0  0  0  0  0  0  0  0  0
   50.8590  -22.2420   34.4440 C   0  0  0  0  0  0  0  0  0  0  0  0
  5  1  1  0
 25  1  1  0
 26  1  2  0
  3  2  1  0
  6  2  2  0
 27  2  1  0
  4  3  1  0
  9  3  2  0
  5  4  2  0
  7  6  1  0
  8  7  2  0
  9  8  1  0
 15  8  1  0
 11 10  2  0
 28 10  1  0
 24 11  1  0
 30 11  1  0
 27 12  1  0
 35 12  2  0
 29 13  1  0
 30 13  2  0
 22 14  2  0
 34 14  1  0
 19 16  1  0
 18 17  2  0
 21 17  1  0
 23 17  1  0
 19 18  1  0
 20 19  2  0
 21 20  1  0
 22 20  1  0
 31 22  1  0
 24 23  1  0
 25 23  1  0
 37 27  1  0
 29 28  2  0
 32 31  2  0
 33 32  1  0
 34 33  2  0
 38 33  1  0
 36 35  1  0
 37 36  2  0
 39 38  1  0
 40 39  2  0
 41 39  1  0
 42 41  1  0
A    1
C13
A    2
C18
A    3
C17
A    4
C16
A    5
C15
A    6
C19
A    7
C20
A    8
C21
A    9
C22
A   10
C24
A   11
C11
A   12
C34
A   13
C27
A   14
C33
A   15
CL1
A   16
CL2
A   17
C3
A   18
N4
A   19
C5
A   20
C6
A   21
N7
A   22
C8
A   23
C9
A   24
C10
A   25
N12
A   26
O14
A   27
N23
A   28
C25
A   29
C26
A   30
C28
A   31
C29
A   32
C30
A   33
C31
A   34
C32
A   35
N35
A   36
N36
A   37
N37
A   38
N38
A   39
C39
A   40
O40
A   41
O41
A   42
C42
M  END
>  <Id>  (8) 
4Y8X_4GR_A_301

>  <ChainId>  (8) 
A

>  <AsymId>  (8) 
B

>  <SeqNum>  (8) 
301

>  <Name>  (8) 
methyl (4-{4-chloro-2-[(1S)-1-({(2E)-3-[5-chloro-2-(1H-tetrazol-1-yl)phenyl]prop-2-enoyl}amino)-2-phenylethyl]-1H-imidazol-5-yl}phenyl)carbamate

>  <SystematicName>  (8) 
methyl N-[4-[4-chloranyl-2-[(1S)-1-[[(E)-3-[5-chloranyl-2-(1,2,3,4-tetrazol-1-yl)phenyl]prop-2-enoyl]amino]-2-phenyl-ethyl]-1H-imidazol-5-yl]phenyl]carbamate

>  <Synonyms>  (8) 


>  <Type>  (8) 
NON-POLYMER

>  <Formula>  (8) 
C29 H24 Cl2 N8 O3

>  <ObservedFormula>  (8) 
C29 Cl2 N8 O3

>  <MolecularWeight>  (8) 
603.459

>  <ModifiedDate>  (8) 
2015-05-22

>  <Parent>  (8) 


>  <OneLetterCode>  (8) 


>  <SubcomponentList>  (8) 


>  <AmbiguousFlag>  (8) 
N

>  <InsertionCode>  (8) 


>  <InstanceId>  (8) 
4Y8X_4GR_A_301

>  <ChemCompId>  (8) 
4GR

>  <PdbId>  (8) 
4Y8X

>  <ResidueNumber>  (8) 
301

>  <InChI>  (8) 
InChI=1S/C29H24Cl2N8O3/c1-42-29(41)33-22-11-7-19(8-12-22)26-27(31)36-28(35-26)23(15-18-5-3-2-4-6-18)34-25(40)14-9-20-16-21(30)10-13-24(20)39-17-32-37-38-39/h2-14,16-17,23H,15H2,1H3,(H,33,41)(H,34,40)(H,35,36)/b14-9+/t23-/m0/s1

>  <InChIKey>  (8) 
GLCBWRQIUCCILC-PZVJUEDKSA-N

>  <SMILES>  (8) 
COC(=O)Nc1ccc(cc1)c2c(nc([nH]2)[C@H](Cc3ccccc3)NC(=O)/C=C/c4cc(ccc4n5cnnn5)Cl)Cl

>  <MissingHeavyAtoms>  (8) 
0

>  <Model>  (8) 
1

>  <AltIds>  (8) 


>  <pKI>  (8) 
8.5

>  <ChemblID>  (8) 
CHEMBL3398641

>  <standardized_canonical_smiles>  (8) 
COC(=O)Nc1ccc(-c2nc([C@H](Cc3ccccc3)NC(=O)/C=C/c3cc(Cl)ccc3-n3cnnn3)[nH]c2Cl)cc1

$$$$
4X6P_3YU_B_302
     RDKit          3D

 40 45  0  0  0  0  0  0  0  0999 V2000
   16.2120   31.0080  -76.1930 N   0  0  0  0  0  0  0  0  0  0  0  0
   15.2620   31.6570  -76.9680 C   0  0  0  0  0  0  0  0  0  0  0  0
   13.0060   34.9420  -75.4090 C   0  0  0  0  0  0  0  0  0  0  0  0
   12.5450   34.2150  -76.5210 C   0  0  0  0  0  0  0  0  0  0  0  0
   13.2450   33.1190  -77.0150 C   0  0  0  0  0  0  0  0  0  0  0  0
   14.4130   32.7080  -76.3720 C   0  0  0  0  0  0  0  0  0  0  0  0
   14.1600   34.4990  -74.7610 C   0  0  0  0  0  0  0  0  0  0  0  0
   14.8450   33.3960  -75.2360 C   0  0  0  0  0  0  0  0  0  0  0  0
   15.3400   21.4990  -77.3090 C   0  0  0  0  0  0  0  0  0  0  0  0
   15.8160   20.8070  -76.2060 C   0  0  0  0  0  0  0  0  0  0  0  0
   16.5870   21.4690  -75.2750 C   0  0  0  0  0  0  0  0  0  0  0  0
   16.8790   22.8140  -75.4060 C   0  0  0  0  0  0  0  0  0  0  0  0
   15.2760   31.1290  -78.2240 C   0  0  0  0  0  0  0  0  0  0  0  0
   15.2550   23.1370  -79.9610 C   0  0  0  0  0  0  0  0  0  0  0  0
   17.5210   27.7840  -76.5550 N   0  0  0  0  0  0  0  0  0  0  0  0
   17.8860   29.2060  -76.5310 C   0  0  0  0  0  0  0  0  0  0  0  0
   16.7830   30.1170  -76.9840 C   0  0  0  0  0  0  0  0  0  0  0  0
   19.1920   29.4840  -77.3010 C   0  0  0  0  0  0  0  0  0  0  0  0
   19.7300   30.8910  -77.1270 C   0  0  0  0  0  0  0  0  0  0  0  0
   20.3500   31.5470  -78.1860 C   0  0  0  0  0  0  0  0  0  0  0  0
   20.8980   32.8140  -78.0240 C   0  0  0  0  0  0  0  0  0  0  0  0
   20.7890   33.4700  -76.8070 C   0  0  0  0  0  0  0  0  0  0  0  0
   20.1490   32.8400  -75.7520 C   0  0  0  0  0  0  0  0  0  0  0  0
   19.6410   31.5570  -75.9050 C   0  0  0  0  0  0  0  0  0  0  0  0
   16.2490   30.1710  -78.2250 N   0  0  0  0  0  0  0  0  0  0  0  0
   16.3810   23.5300  -76.5010 C   0  0  0  0  0  0  0  0  0  0  0  0
   15.5960   22.8640  -77.4590 C   0  0  0  0  0  0  0  0  0  0  0  0
   15.2330   23.5170  -78.6750 N   0  0  0  0  0  0  0  0  0  0  0  0
   17.2600   20.5780  -73.9330 Cl  0  0  0  0  0  0  0  0  0  0  0  0
   16.7270   24.9600  -76.5790 C   0  0  0  0  0  0  0  0  0  0  0  0
   16.3900   25.8540  -75.6540 C   0  0  0  0  0  0  0  0  0  0  0  0
   16.6870   27.3050  -75.6010 C   0  0  0  0  0  0  0  0  0  0  0  0
   16.1440   28.0480  -74.7800 O   0  0  0  0  0  0  0  0  0  0  0  0
   14.6880   24.0380  -80.7120 N   0  0  0  0  0  0  0  0  0  0  0  0
   14.2520   24.9960  -79.8570 N   0  0  0  0  0  0  0  0  0  0  0  0
   14.5630   24.6960  -78.6340 N   0  0  0  0  0  0  0  0  0  0  0  0
   11.3960   34.8130  -76.9280 N   0  0  0  0  0  0  0  0  0  0  0  0
   11.0960   35.9060  -76.1640 N   0  0  0  0  0  0  0  0  0  0  0  0
   12.0490   36.0460  -75.2440 C   0  0  0  0  0  0  0  0  0  0  0  0
   12.0580   37.0710  -74.3740 N   0  0  0  0  0  0  0  0  0  0  0  0
  2  1  1  0
 17  1  2  0
  6  2  1  0
 13  2  2  0
  4  3  1  0
  7  3  2  0
 39  3  1  0
  5  4  2  0
 37  4  1  0
  6  5  1  0
  8  6  2  0
  8  7  1  0
 10  9  2  0
 27  9  1  0
 11 10  1  0
 12 11  2  0
 29 11  1  0
 26 12  1  0
 25 13  1  0
 28 14  1  0
 34 14  2  0
 16 15  1  0
 32 15  1  0
 17 16  1  0
 18 16  1  0
 25 17  1  0
 19 18  1  0
 20 19  2  0
 24 19  1  0
 21 20  1  0
 22 21  2  0
 23 22  1  0
 24 23  2  0
 27 26  2  0
 30 26  1  0
 28 27  1  0
 36 28  1  0
 31 30  2  0
 32 31  1  0
 33 32  2  0
 35 34  1  0
 36 35  2  0
 38 37  1  0
 39 38  2  0
 40 39  1  0
A    1
N14
A    2
C13
A    3
C18
A    4
C17
A    5
C16
A    6
C15
A    7
C19
A    8
C20
A    9
C21
A   10
C22
A   11
C23
A   12
C24
A   13
C12
A   14
C33
A   15
N1
A   16
C2
A   17
C3
A   18
C4
A   19
C5
A   20
C6
A   21
C7
A   22
C8
A   23
C9
A   24
C10
A   25
N11
A   26
C25
A   27
C26
A   28
N27
A   29
CL1
A   30
C29
A   31
C30
A   32
C31
A   33
O32
A   34
N34
A   35
N35
A   36
N36
A   37
N37
A   38
N38
A   39
C39
A   40
N40
M  END
>  <Id>  (9) 
4X6P_3YU_B_302

>  <ChainId>  (9) 
B

>  <AsymId>  (9) 
H

>  <SeqNum>  (9) 
302

>  <Name>  (9) 
(2E)-N-{(1S)-1-[4-(3-amino-1H-indazol-6-yl)-1H-imidazol-2-yl]-2-phenylethyl}-3-[5-chloro-2-(1H-tetrazol-1-yl)phenyl]prop-2-enamide

>  <SystematicName>  (9) 
(E)-N-[(1S)-1-[4-(3-azanyl-1H-indazol-6-yl)-1H-imidazol-2-yl]-2-phenyl-ethyl]-3-[5-chloranyl-2-(1,2,3,4-tetrazol-1-yl)phenyl]prop-2-enamide

>  <Synonyms>  (9) 


>  <Type>  (9) 
NON-POLYMER

>  <Formula>  (9) 
C28 H23 Cl N10 O

>  <ObservedFormula>  (9) 
C28 Cl N10 O

>  <MolecularWeight>  (9) 
551.002

>  <ModifiedDate>  (9) 
2015-02-13

>  <Parent>  (9) 


>  <OneLetterCode>  (9) 


>  <SubcomponentList>  (9) 


>  <AmbiguousFlag>  (9) 
N

>  <InsertionCode>  (9) 


>  <InstanceId>  (9) 
4X6P_3YU_B_302

>  <ChemCompId>  (9) 
3YU

>  <PdbId>  (9) 
4X6P

>  <ResidueNumber>  (9) 
302

>  <InChI>  (9) 
InChI=1S/C28H23ClN10O/c29-20-8-10-25(39-16-32-37-38-39)19(13-20)7-11-26(40)33-23(12-17-4-2-1-3-5-17)28-31-15-24(34-28)18-6-9-21-22(14-18)35-36-27(21)30/h1-11,13-16,23H,12H2,(H,31,34)(H,33,40)(H3,30,35,36)/b11-7+/t23-/m0/s1

>  <InChIKey>  (9) 
SSIRUUYXDLDNRC-BVRWQAIYSA-N

>  <SMILES>  (9) 
c1ccc(cc1)C[C@@H](c2[nH]cc(n2)c3ccc4c(c3)[nH]nc4N)NC(=O)/C=C/c5cc(ccc5n6cnnn6)Cl

>  <MissingHeavyAtoms>  (9) 
0

>  <Model>  (9) 
1

>  <AltIds>  (9) 


>  <pKI>  (9) 
8.3

>  <ChemblID>  (9) 
CHEMBL3398643

>  <standardized_canonical_smiles>  (9) 
Nc1[nH]nc2cc(-c3c[nH]c([C@H](Cc4ccccc4)NC(=O)/C=C/c4cc(Cl)ccc4-n4cnnn4)n3)ccc12

$$$$
4Y8Z_4CE_A_301
     RDKit          3D

 46 51  0  0  0  0  0  0  0  0999 V2000
   46.2580  -21.4830   30.4720 C   0  0  0  0  0  0  0  0  0  0  0  0
   44.5260  -21.9190   32.0840 C   0  0  0  0  0  0  0  0  0  0  0  0
   45.4690  -22.2650   33.0250 C   0  0  0  0  0  0  0  0  0  0  0  0
   46.8280  -22.2520   32.7030 C   0  0  0  0  0  0  0  0  0  0  0  0
   48.6690  -21.7500   31.1680 C   0  0  0  0  0  0  0  0  0  0  0  0
   49.5860  -22.0660   32.1850 C   0  0  0  0  0  0  0  0  0  0  0  0
   49.1410  -22.4650   33.4960 C   0  0  0  0  0  0  0  0  0  0  0  0
   44.9020  -21.5370   30.8000 C   0  0  0  0  0  0  0  0  0  0  0  0
   38.9550  -15.0380   25.0960 C   0  0  0  0  0  0  0  0  0  0  0  0
   35.8140  -13.7820   27.9110 C   0  0  0  0  0  0  0  0  0  0  0  0
   39.8090  -24.5950   28.1230 N   0  0  0  0  0  0  0  0  0  0  0  0
   39.4310  -24.6670   26.6860 C   0  0  0  0  0  0  0  0  0  0  0  0
   40.3350  -25.6280   25.9250 C   0  0  0  0  0  0  0  0  0  0  0  0
   40.3840  -26.9330   26.5890 N   0  0  0  0  0  0  0  0  0  0  0  0
   40.8840  -26.7790   27.9430 C   0  0  0  0  0  0  0  0  0  0  0  0
   39.9740  -25.9240   28.7440 C   0  0  0  0  0  0  0  0  0  0  0  0
   41.8170  -20.9960   29.1600 C   0  0  0  0  0  0  0  0  0  0  0  0
   42.5620  -20.8050   28.0450 N   0  0  0  0  0  0  0  0  0  0  0  0
   43.8490  -20.9510   28.4250 C   0  0  0  0  0  0  0  0  0  0  0  0
   43.8540  -21.2400   29.7990 C   0  0  0  0  0  0  0  0  0  0  0  0
   42.5360  -21.2510   30.2220 N   0  0  0  0  0  0  0  0  0  0  0  0
   47.2340  -21.8390   31.4190 C   0  0  0  0  0  0  0  0  0  0  0  0
   45.1200  -20.7430   27.3000 Cl  0  0  0  0  0  0  0  0  0  0  0  0
   47.7880  -22.5660   33.6690 N   0  0  0  0  0  0  0  0  0  0  0  0
   49.9050  -22.6190   34.4650 O   0  0  0  0  0  0  0  0  0  0  0  0
   49.0370  -21.3090   29.9720 O   0  0  0  0  0  0  0  0  0  0  0  0
   40.3290  -21.0210   29.1860 C   0  0  0  0  0  0  0  0  0  0  0  0
   36.9630  -13.9610   27.1470 C   0  0  0  0  0  0  0  0  0  0  0  0
   35.4790  -14.7270   28.8520 C   0  0  0  0  0  0  0  0  0  0  0  0
   36.2660  -15.8490   29.0550 C   0  0  0  0  0  0  0  0  0  0  0  0
   37.4370  -16.0350   28.3090 C   0  0  0  0  0  0  0  0  0  0  0  0
   37.7870  -15.0760   27.3370 C   0  0  0  0  0  0  0  0  0  0  0  0
   38.8180  -15.3480   26.3850 N   0  0  0  0  0  0  0  0  0  0  0  0
   34.0210  -14.5150   29.8010 Cl  0  0  0  0  0  0  0  0  0  0  0  0
   40.1750  -15.2690   24.7050 N   0  0  0  0  0  0  0  0  0  0  0  0
   40.8170  -15.7380   25.8010 N   0  0  0  0  0  0  0  0  0  0  0  0
   40.0210  -15.7960   26.8230 N   0  0  0  0  0  0  0  0  0  0  0  0
   38.1990  -17.2670   28.5390 C   0  0  0  0  0  0  0  0  0  0  0  0
   38.6620  -17.6750   29.7060 C   0  0  0  0  0  0  0  0  0  0  0  0
   39.4900  -18.9000   29.9620 C   0  0  0  0  0  0  0  0  0  0  0  0
   39.8600  -19.1850   31.1100 O   0  0  0  0  0  0  0  0  0  0  0  0
   39.7980  -19.7010   28.8890 N   0  0  0  0  0  0  0  0  0  0  0  0
   39.8030  -22.1140   28.2580 C   0  0  0  0  0  0  0  0  0  0  0  0
   39.9640  -23.4920   28.8940 C   0  0  0  0  0  0  0  0  0  0  0  0
   40.1730  -23.6270   30.1010 O   0  0  0  0  0  0  0  0  0  0  0  0
   41.2340  -27.8440   25.8660 C   0  0  0  0  0  0  0  0  0  0  0  0
  8  1  2  0
 22  1  1  0
  3  2  2  0
  8  2  1  0
  4  3  1  0
 22  4  2  0
 24  4  1  0
  6  5  2  0
 22  5  1  0
 26  5  1  0
  7  6  1  0
 24  7  1  0
 25  7  2  0
 20  8  1  0
 33  9  1  0
 35  9  2  0
 28 10  2  0
 29 10  1  0
 12 11  1  0
 16 11  1  0
 44 11  1  0
 13 12  1  0
 14 13  1  0
 15 14  1  0
 46 14  1  0
 16 15  1  0
 18 17  1  0
 21 17  2  0
 27 17  1  0
 19 18  1  0
 20 19  2  0
 23 19  1  0
 21 20  1  0
 42 27  1  0
 43 27  1  0
 32 28  1  0
 30 29  2  0
 34 29  1  0
 31 30  1  0
 32 31  2  0
 38 31  1  0
 33 32  1  0
 37 33  1  0
 36 35  1  0
 37 36  2  0
 39 38  2  0
 40 39  1  0
 41 40  2  0
 42 40  1  0
 44 43  1  0
 45 44  2  0
A    1
C13
A    2
C17
A    3
C16
A    4
C15
A    5
C19
A    6
C20
A    7
C21
A    8
C12
A    9
C34
A   10
C27
A   11
N1
A   12
C2
A   13
C3
A   14
N4
A   15
C5
A   16
C6
A   17
C7
A   18
N8
A   19
C9
A   20
C10
A   21
N11
A   22
C14
A   23
CL1
A   24
N22
A   25
O23
A   26
O24
A   27
C25
A   28
C26
A   29
C28
A   30
C29
A   31
C30
A   32
C31
A   33
N32
A   34
CL2
A   35
N35
A   36
N36
A   37
N37
A   38
C38
A   39
C39
A   40
C40
A   41
O41
A   42
N42
A   43
C43
A   44
C44
A   45
O45
A   46
C46
M  END
>  <Id>  (10) 
4Y8Z_4CE_A_301

>  <ChainId>  (10) 
A

>  <AsymId>  (10) 
B

>  <SeqNum>  (10) 
301

>  <Name>  (10) 
(2E)-N-[(1S)-1-[5-chloro-4-(4-hydroxy-2-oxo-1,2-dihydroquinolin-6-yl)-1H-imidazol-2-yl]-3-(4-methylpiperazin-1-yl)-3-oxopropyl]-3-[5-chloro-2-(1H-tetrazol-1-yl)phenyl]prop-2-enamide

>  <SystematicName>  (10) 
(E)-N-[(1S)-1-[5-chloranyl-4-(4-oxidanyl-2-oxidanylidene-1H-quinolin-6-yl)-1H-imidazol-2-yl]-3-(4-methylpiperazin-1-yl)-3-oxidanylidene-propyl]-3-[5-chloranyl-2-(1,2,3,4-tetrazol-1-yl)phenyl]prop-2-enamide

>  <Synonyms>  (10) 


>  <Type>  (10) 
NON-POLYMER

>  <Formula>  (10) 
C30 H28 Cl2 N10 O4

>  <ObservedFormula>  (10) 
C30 Cl2 N10 O4

>  <MolecularWeight>  (10) 
663.514

>  <ModifiedDate>  (10) 
2015-05-22

>  <Parent>  (10) 


>  <OneLetterCode>  (10) 


>  <SubcomponentList>  (10) 


>  <AmbiguousFlag>  (10) 
N

>  <InsertionCode>  (10) 


>  <InstanceId>  (10) 
4Y8Z_4CE_A_301

>  <ChemCompId>  (10) 
4CE

>  <PdbId>  (10) 
4Y8Z

>  <ResidueNumber>  (10) 
301

>  <InChI>  (10) 
InChI=1S/C30H28Cl2N10O4/c1-40-8-10-41(11-9-40)27(46)14-22(35-25(44)7-3-17-12-19(31)4-6-23(17)42-16-33-38-39-42)30-36-28(29(32)37-30)18-2-5-21-20(13-18)24(43)15-26(45)34-21/h2-7,12-13,15-16,22H,8-11,14H2,1H3,(H,35,44)(H,36,37)(H2,34,43,45)/b7-3+/t22-/m0/s1

>  <InChIKey>  (10) 
NBMJTOOHXJGJNZ-RJOTYRNVSA-N

>  <SMILES>  (10) 
CN1CCN(CC1)C(=O)C[C@@H](c2[nH]c(c(n2)c3ccc4c(c3)C(=CC(=O)N4)O)Cl)NC(=O)/C=C/c5cc(ccc5n6cnnn6)Cl

>  <MissingHeavyAtoms>  (10) 
0

>  <Model>  (10) 
1

>  <AltIds>  (10) 


>  <pKI>  (10) 
10.2

>  <ChemblID>  (10) 
CHEMBL3580759

>  <standardized_canonical_smiles>  (10) 
CN1CCN(C(=O)C[C@H](NC(=O)/C=C/c2cc(Cl)ccc2-n2cnnn2)c2nc(-c3ccc4[nH]c(=O)cc(O)c4c3)c(Cl)[nH]2)CC1

$$$$
4Y8Y_4D5_A_301
     RDKit          3D

 44 48  0  0  0  0  0  0  0  0999 V2000
   46.3720  -22.1720   31.9520 C   0  0  0  0  0  0  0  0  0  0  0  0
   48.6840  -22.3250   32.9020 C   0  0  0  0  0  0  0  0  0  0  0  0
   45.6140  -21.0070   29.9800 C   0  0  0  0  0  0  0  0  0  0  0  0
   38.9620  -19.0600   29.4030 C   0  0  0  0  0  0  0  0  0  0  0  0
   38.2970  -17.7410   29.2740 C   0  0  0  0  0  0  0  0  0  0  0  0
   37.8080  -17.1860   28.1630 C   0  0  0  0  0  0  0  0  0  0  0  0
   37.1730  -15.8670   28.0170 C   0  0  0  0  0  0  0  0  0  0  0  0
   44.0700  -22.3150   31.2550 C   0  0  0  0  0  0  0  0  0  0  0  0
   45.0730  -22.6300   32.1550 C   0  0  0  0  0  0  0  0  0  0  0  0
   37.6280  -14.9010   27.1090 C   0  0  0  0  0  0  0  0  0  0  0  0
   38.7850  -15.2100   24.8910 C   0  0  0  0  0  0  0  0  0  0  0  0
   41.1930  -21.0410   28.3900 C   0  0  0  0  0  0  0  0  0  0  0  0
   41.9860  -20.8410   27.3500 N   0  0  0  0  0  0  0  0  0  0  0  0
   43.2500  -20.9470   27.8300 C   0  0  0  0  0  0  0  0  0  0  0  0
   43.2580  -21.2080   29.1750 C   0  0  0  0  0  0  0  0  0  0  0  0
   41.9250  -21.2490   29.5160 N   0  0  0  0  0  0  0  0  0  0  0  0
   39.6950  -21.1040   28.3100 C   0  0  0  0  0  0  0  0  0  0  0  0
   39.0930  -19.7730   28.2670 N   0  0  0  0  0  0  0  0  0  0  0  0
   39.2050  -21.9550   27.1320 C   0  0  0  0  0  0  0  0  0  0  0  0
   44.5990  -20.7740   26.7810 Cl  0  0  0  0  0  0  0  0  0  0  0  0
   44.3220  -21.4970   30.1600 C   0  0  0  0  0  0  0  0  0  0  0  0
   46.6320  -21.3540   30.8520 C   0  0  0  0  0  0  0  0  0  0  0  0
   47.3570  -22.6310   32.8790 N   0  0  0  0  0  0  0  0  0  0  0  0
   49.2810  -21.6460   32.0960 O   0  0  0  0  0  0  0  0  0  0  0  0
   49.2370  -22.8490   34.0050 O   0  0  0  0  0  0  0  0  0  0  0  0
   39.4050  -19.4780   30.4800 O   0  0  0  0  0  0  0  0  0  0  0  0
   39.5780  -23.4220   27.1850 C   0  0  0  0  0  0  0  0  0  0  0  0
   50.6290  -22.5180   34.2330 C   0  0  0  0  0  0  0  0  0  0  0  0
   36.9720  -13.6790   27.0000 C   0  0  0  0  0  0  0  0  0  0  0  0
   35.8470  -13.4240   27.7670 C   0  0  0  0  0  0  0  0  0  0  0  0
   35.4110  -14.3770   28.6630 C   0  0  0  0  0  0  0  0  0  0  0  0
   36.0500  -15.5910   28.7920 C   0  0  0  0  0  0  0  0  0  0  0  0
   38.7110  -15.1800   26.2270 N   0  0  0  0  0  0  0  0  0  0  0  0
   39.9220  -15.5280   26.7240 N   0  0  0  0  0  0  0  0  0  0  0  0
   40.6700  -15.7620   25.6950 N   0  0  0  0  0  0  0  0  0  0  0  0
   39.9850  -15.5720   24.5380 N   0  0  0  0  0  0  0  0  0  0  0  0
   34.0610  -14.0140   29.7040 Cl  0  0  0  0  0  0  0  0  0  0  0  0
   40.1460  -23.8920   28.1650 O   0  0  0  0  0  0  0  0  0  0  0  0
   39.1940  -24.1990   26.1440 N   0  0  0  0  0  0  0  0  0  0  0  0
   38.3620  -23.7700   25.0110 C   0  0  0  0  0  0  0  0  0  0  0  0
   37.1320  -24.6290   24.9490 C   0  0  0  0  0  0  0  0  0  0  0  0
   37.4680  -26.0090   24.7940 O   0  0  0  0  0  0  0  0  0  0  0  0
   38.3030  -26.4400   25.8620 C   0  0  0  0  0  0  0  0  0  0  0  0
   39.5530  -25.6080   25.9810 C   0  0  0  0  0  0  0  0  0  0  0  0
  9  1  2  0
 22  1  1  0
 23  1  1  0
 23  2  1  0
 24  2  2  0
 25  2  1  0
 21  3  1  0
 22  3  2  0
  5  4  1  0
 18  4  1  0
 26  4  2  0
  6  5  2  0
  7  6  1  0
 10  7  1  0
 32  7  2  0
  9  8  1  0
 21  8  2  0
 29 10  2  0
 33 10  1  0
 33 11  1  0
 36 11  2  0
 13 12  2  0
 16 12  1  0
 17 12  1  0
 14 13  1  0
 15 14  2  0
 20 14  1  0
 16 15  1  0
 21 15  1  0
 18 17  1  0
 19 17  1  0
 27 19  1  0
 28 25  1  0
 38 27  2  0
 39 27  1  0
 30 29  1  0
 31 30  2  0
 32 31  1  0
 37 31  1  0
 34 33  1  0
 35 34  2  0
 36 35  1  0
 40 39  1  0
 44 39  1  0
 41 40  1  0
 42 41  1  0
 43 42  1  0
 44 43  1  0
A    1
C13
A    2
C17
A    3
C15
A    4
C20
A    5
C21
A    6
C23
A    7
C24
A    8
C11
A    9
C12
A   10
C27
A   11
C33
A   12
C1
A   13
N2
A   14
C3
A   15
C4
A   16
N5
A   17
C6
A   18
N7
A   19
C8
A   20
CL9
A   21
C10
A   22
C14
A   23
N16
A   24
O18
A   25
O19
A   26
O22
A   27
C25
A   28
C26
A   29
C28
A   30
C29
A   31
C30
A   32
C31
A   33
N32
A   34
N34
A   35
N35
A   36
N36
A   37
CL3
A   38
O38
A   39
N39
A   40
C40
A   41
C41
A   42
O42
A   43
C43
A   44
C44
M  END
>  <Id>  (11) 
4Y8Y_4D5_A_301

>  <ChainId>  (11) 
A

>  <AsymId>  (11) 
B

>  <SeqNum>  (11) 
301

>  <Name>  (11) 
methyl (4-{4-chloro-2-[(1S)-1-({(2E)-3-[5-chloro-2-(1H-tetrazol-1-yl)phenyl]prop-2-enoyl}amino)-3-(morpholin-4-yl)-3-oxopropyl]-1H-imidazol-5-yl}phenyl)carbamate

>  <SystematicName>  (11) 
methyl N-[4-[4-chloranyl-2-[(1S)-1-[[(E)-3-[5-chloranyl-2-(1,2,3,4-tetrazol-1-yl)phenyl]prop-2-enoyl]amino]-3-morpholin-4-yl-3-oxidanylidene-propyl]-1H-imidazol-5-yl]phenyl]carbamate

>  <Synonyms>  (11) 


>  <Type>  (11) 
NON-POLYMER

>  <Formula>  (11) 
C28 H27 Cl2 N9 O5

>  <ObservedFormula>  (11) 
C28 Cl2 N9 O5

>  <MolecularWeight>  (11) 
640.477

>  <ModifiedDate>  (11) 
2015-05-22

>  <Parent>  (11) 


>  <OneLetterCode>  (11) 


>  <SubcomponentList>  (11) 


>  <AmbiguousFlag>  (11) 
N

>  <InsertionCode>  (11) 


>  <InstanceId>  (11) 
4Y8Y_4D5_A_301

>  <ChemCompId>  (11) 
4D5

>  <PdbId>  (11) 
4Y8Y

>  <ResidueNumber>  (11) 
301

>  <InChI>  (11) 
InChI=1S/C28H27Cl2N9O5/c1-43-28(42)32-20-6-2-17(3-7-20)25-26(30)35-27(34-25)21(15-24(41)38-10-12-44-13-11-38)33-23(40)9-4-18-14-19(29)5-8-22(18)39-16-31-36-37-39/h2-9,14,16,21H,10-13,15H2,1H3,(H,32,42)(H,33,40)(H,34,35)/b9-4+/t21-/m0/s1

>  <InChIKey>  (11) 
JXLVPHOTGHZUCE-ZSIUJALASA-N

>  <SMILES>  (11) 
COC(=O)Nc1ccc(cc1)c2c(nc([nH]2)[C@H](CC(=O)N3CCOCC3)NC(=O)/C=C/c4cc(ccc4n5cnnn5)Cl)Cl

>  <MissingHeavyAtoms>  (11) 
0

>  <Model>  (11) 
1

>  <AltIds>  (11) 


>  <pKI>  (11) 
9.15

>  <ChemblID>  (11) 
CHEMBL3580755

>  <standardized_canonical_smiles>  (11) 
COC(=O)Nc1ccc(-c2nc([C@H](CC(=O)N3CCOCC3)NC(=O)/C=C/c3cc(Cl)ccc3-n3cnnn3)[nH]c2Cl)cc1

$$$$
5QCL_BUY_A_301
     RDKit          3D

 38 42  0  0  0  0  0  0  0  0999 V2000
   38.1340  -16.9910   28.7300 C   0  0  0  0  0  0  0  0  0  0  0  0
   38.8100  -20.9940   27.2010 C   0  0  0  0  0  0  0  0  0  0  0  0
   39.2790  -19.1590   28.9600 C   0  0  0  0  0  0  0  0  0  0  0  0
   40.2000  -21.4090   29.2920 C   0  0  0  0  0  0  0  0  0  0  0  0
   40.0670  -22.8960   29.0170 C   0  0  0  0  0  0  0  0  0  0  0  0
   39.7620  -23.2540   27.7040 C   0  0  0  0  0  0  0  0  0  0  0  0
   39.5710  -22.1880   26.6530 C   0  0  0  0  0  0  0  0  0  0  0  0
   40.2810  -23.8890   29.9700 C   0  0  0  0  0  0  0  0  0  0  0  0
   40.1950  -25.2230   29.6290 C   0  0  0  0  0  0  0  0  0  0  0  0
   43.8720  -21.2980   30.3420 C   0  0  0  0  0  0  0  0  0  0  0  0
   41.6930  -21.0960   29.1140 C   0  0  0  0  0  0  0  0  0  0  0  0
   44.6920  -20.6590   29.4140 C   0  0  0  0  0  0  0  0  0  0  0  0
   33.6950  -14.5620   29.6210 Cl  0  0  0  0  0  0  0  0  0  0  0  0
   36.7350  -13.8800   27.0880 C   0  0  0  0  0  0  0  0  0  0  0  0
   35.5580  -13.7390   27.8150 C   0  0  0  0  0  0  0  0  0  0  0  0
   35.1910  -14.7300   28.7070 C   0  0  0  0  0  0  0  0  0  0  0  0
   35.9800  -15.8480   28.9050 C   0  0  0  0  0  0  0  0  0  0  0  0
   37.1940  -15.9780   28.2210 C   0  0  0  0  0  0  0  0  0  0  0  0
   37.5420  -15.0100   27.2620 C   0  0  0  0  0  0  0  0  0  0  0  0
   38.6530  -15.2060   26.3810 N   0  0  0  0  0  0  0  0  0  0  0  0
   38.7570  -15.1530   25.0460 C   0  0  0  0  0  0  0  0  0  0  0  0
   39.9800  -15.4380   24.6890 N   0  0  0  0  0  0  0  0  0  0  0  0
   40.6530  -15.6760   25.8450 N   0  0  0  0  0  0  0  0  0  0  0  0
   39.8720  -15.5360   26.8730 N   0  0  0  0  0  0  0  0  0  0  0  0
   38.3780  -18.2100   28.2480 C   0  0  0  0  0  0  0  0  0  0  0  0
   39.8150  -18.8930   30.0390 O   0  0  0  0  0  0  0  0  0  0  0  0
   39.4430  -20.4740   28.4300 N   0  0  0  0  0  0  0  0  0  0  0  0
   39.8910  -25.5820   28.3360 C   0  0  0  0  0  0  0  0  0  0  0  0
   39.6790  -24.6040   27.3770 C   0  0  0  0  0  0  0  0  0  0  0  0
   42.1110  -20.6110   28.0640 O   0  0  0  0  0  0  0  0  0  0  0  0
   44.4420  -21.8130   31.5060 C   0  0  0  0  0  0  0  0  0  0  0  0
   45.8090  -21.7250   31.7140 C   0  0  0  0  0  0  0  0  0  0  0  0
   46.6360  -21.1090   30.7750 C   0  0  0  0  0  0  0  0  0  0  0  0
   46.0540  -20.5630   29.6330 C   0  0  0  0  0  0  0  0  0  0  0  0
   42.4730  -21.4540   30.1680 N   0  0  0  0  0  0  0  0  0  0  0  0
   48.1230  -21.1690   30.9020 C   0  0  0  0  0  0  0  0  0  0  0  0
   48.5750  -21.9680   31.8420 O   0  0  0  0  0  0  0  0  0  0  0  0
   48.8530  -20.4410   30.2270 O   0  0  0  0  0  0  0  0  0  0  0  0
 18  1  1  0
 25  1  2  0
  7  2  1  0
 27  2  1  0
 25  3  1  0
 26  3  2  0
 27  3  1  0
  5  4  1  0
 11  4  1  0
 27  4  1  0
  6  5  2  0
  8  5  1  0
  7  6  1  0
 29  6  1  0
  9  8  2  0
 28  9  1  0
 12 10  2  0
 31 10  1  0
 35 10  1  0
 30 11  2  0
 35 11  1  0
 34 12  1  0
 16 13  1  0
 15 14  2  0
 19 14  1  0
 16 15  1  0
 17 16  2  0
 18 17  1  0
 19 18  2  0
 20 19  1  0
 21 20  1  0
 24 20  1  0
 22 21  2  0
 23 22  1  0
 24 23  2  0
 29 28  2  0
 32 31  2  0
 33 32  1  0
 34 33  2  0
 36 33  1  0
 37 36  1  0
 38 36  2  0
A    1
C13
A    2
C17
A    3
C15
A    4
C19
A    5
C20
A    6
C21
A    7
C22
A    8
C23
A    9
C24
A   10
C34
A   11
C27
A   12
C33
A   13
CL1
A   14
C2
A   15
C3
A   16
C4
A   17
C5
A   18
C6
A   19
C7
A   20
N8
A   21
C9
A   22
N10
A   23
N11
A   24
N12
A   25
C14
A   26
O16
A   27
N18
A   28
C25
A   29
C26
A   30
O28
A   31
C29
A   32
C30
A   33
C31
A   34
C32
A   35
N35
A   36
C36
A   37
O37
A   38
O38
M  END
>  <Id>  (12) 
5QCL_BUY_A_301

>  <ChainId>  (12) 
A

>  <AsymId>  (12) 
B

>  <SeqNum>  (12) 
301

>  <Name>  (12) 
4-[[(1~{S})-2-[(~{E})-3-[5-chloranyl-2-(1,2,3,4-tetrazol-1-yl)phenyl]prop-2-enoyl]-3,4-dihydro-1~{H}-isoquinolin-1-yl]carbonylamino]benzoic acid

>  <SystematicName>  (12) 
4-[[(1~{S})-2-[(~{E})-3-[5-chloranyl-2-(1,2,3,4-tetrazol-1-yl)phenyl]prop-2-enoyl]-3,4-dihydro-1~{H}-isoquinolin-1-yl]carbonylamino]benzoic acid

>  <Synonyms>  (12) 


>  <Type>  (12) 
NON-POLYMER

>  <Formula>  (12) 
C27 H21 Cl N6 O4

>  <ObservedFormula>  (12) 
C27 Cl N6 O4

>  <MolecularWeight>  (12) 
528.946

>  <ModifiedDate>  (12) 
2017-11-03

>  <Parent>  (12) 


>  <OneLetterCode>  (12) 


>  <SubcomponentList>  (12) 


>  <AmbiguousFlag>  (12) 
N

>  <InsertionCode>  (12) 


>  <InstanceId>  (12) 
5QCL_BUY_A_301

>  <ChemCompId>  (12) 
BUY

>  <PdbId>  (12) 
5QCL

>  <ResidueNumber>  (12) 
301

>  <InChI>  (12) 
InChI=1S/C27H21ClN6O4/c28-20-8-11-23(34-16-29-31-32-34)19(15-20)7-12-24(35)33-14-13-17-3-1-2-4-22(17)25(33)26(36)30-21-9-5-18(6-10-21)27(37)38/h1-12,15-16,25H,13-14H2,(H,30,36)(H,37,38)/b12-7+/t25-/m0/s1

>  <InChIKey>  (12) 
XLVCNINDJUKQNE-FRHHVXPKSA-N

>  <SMILES>  (12) 
c1ccc2c(c1)CCN([C@@H]2C(=O)Nc3ccc(cc3)C(=O)O)C(=O)/C=C/c4cc(ccc4n5cnnn5)Cl

>  <MissingHeavyAtoms>  (12) 
0

>  <Model>  (12) 
1

>  <AltIds>  (12) 


>  <pKI>  (12) 
7.99

>  <ChemblID>  (12) 
CHEMBL3701219

>  <standardized_canonical_smiles>  (12) 
O=C(O)c1ccc(NC(=O)[C@@H]2c3ccccc3CCN2C(=O)/C=C/c2cc(Cl)ccc2-n2cnnn2)cc1

$$$$
5QTX_QLD_A_301
     RDKit          3D

 45 49  0  0  0  0  0  0  0  0999 V2000
   37.7200  -17.0550   27.9310 C   0  0  0  0  0  0  0  0  0  0  0  0
   39.3730  -22.0300   27.6770 C   0  0  0  0  0  0  0  0  0  0  0  0
   39.7970  -20.8690   28.5890 C   0  0  0  0  0  0  0  0  0  0  0  0
   39.0540  -18.6970   29.3350 C   0  0  0  0  0  0  0  0  0  0  0  0
   40.1940  -23.3350   27.9170 C   0  0  0  0  0  0  0  0  0  0  0  0
   40.3070  -23.8420   29.3790 C   0  0  0  0  0  0  0  0  0  0  0  0
   41.2890  -20.7110   28.5440 C   0  0  0  0  0  0  0  0  0  0  0  0
   43.3080  -20.6780   27.7110 C   0  0  0  0  0  0  0  0  0  0  0  0
   48.6780  -22.0350   32.8810 C   0  0  0  0  0  0  0  0  0  0  0  0
   44.4220  -21.3940   29.9550 C   0  0  0  0  0  0  0  0  0  0  0  0
   33.8340  -14.0730   29.5330 Cl  0  0  0  0  0  0  0  0  0  0  0  0
   36.7350  -13.5590   26.8440 C   0  0  0  0  0  0  0  0  0  0  0  0
   35.6330  -13.3420   27.6590 C   0  0  0  0  0  0  0  0  0  0  0  0
   35.2320  -14.3350   28.5300 C   0  0  0  0  0  0  0  0  0  0  0  0
   35.9020  -15.5400   28.6080 C   0  0  0  0  0  0  0  0  0  0  0  0
   37.0140  -15.7740   27.7830 C   0  0  0  0  0  0  0  0  0  0  0  0
   37.4250  -14.7660   26.8950 C   0  0  0  0  0  0  0  0  0  0  0  0
   38.5230  -14.9740   26.0040 N   0  0  0  0  0  0  0  0  0  0  0  0
   38.6050  -14.9730   24.6670 C   0  0  0  0  0  0  0  0  0  0  0  0
   39.8230  -15.2640   24.3010 N   0  0  0  0  0  0  0  0  0  0  0  0
   40.5160  -15.4500   25.4550 N   0  0  0  0  0  0  0  0  0  0  0  0
   39.7500  -15.2810   26.4880 N   0  0  0  0  0  0  0  0  0  0  0  0
   38.2710  -17.4710   29.0660 C   0  0  0  0  0  0  0  0  0  0  0  0
   39.7320  -18.8290   30.3600 O   0  0  0  0  0  0  0  0  0  0  0  0
   39.0450  -19.6370   28.3660 N   0  0  0  0  0  0  0  0  0  0  0  0
   41.9900  -20.5140   27.4100 N   0  0  0  0  0  0  0  0  0  0  0  0
   43.3500  -20.9690   29.0450 C   0  0  0  0  0  0  0  0  0  0  0  0
   42.0780  -20.9560   29.5620 N   0  0  0  0  0  0  0  0  0  0  0  0
   45.6090  -20.6560   30.0030 C   0  0  0  0  0  0  0  0  0  0  0  0
   46.5970  -20.9600   30.9260 C   0  0  0  0  0  0  0  0  0  0  0  0
   46.4070  -21.9950   31.8420 C   0  0  0  0  0  0  0  0  0  0  0  0
   45.2390  -22.7550   31.7770 C   0  0  0  0  0  0  0  0  0  0  0  0
   44.2470  -22.4830   30.8390 C   0  0  0  0  0  0  0  0  0  0  0  0
   47.3660  -22.3970   32.8150 N   0  0  0  0  0  0  0  0  0  0  0  0
   49.2750  -21.3570   32.0720 O   0  0  0  0  0  0  0  0  0  0  0  0
   49.2410  -22.5600   33.9880 O   0  0  0  0  0  0  0  0  0  0  0  0
   50.6440  -22.2430   34.2050 C   0  0  0  0  0  0  0  0  0  0  0  0
   41.4630  -24.8160   29.6520 C   0  0  0  0  0  0  0  0  0  0  0  0
   42.8790  -24.2130   29.6230 C   0  0  0  0  0  0  0  0  0  0  0  0
   43.1080  -23.3010   30.7370 N   0  0  0  0  0  0  0  0  0  0  0  0
   43.9320  -25.3070   29.5040 C   0  0  0  0  0  0  0  0  0  0  0  0
   44.2090  -25.8410   28.4700 O   0  0  0  0  0  0  0  0  0  0  0  0
   44.4960  -25.5970   30.6790 O   0  0  0  0  0  0  0  0  0  0  0  0
   46.2530  -26.5680   32.0230 C   0  0  0  0  0  0  0  0  0  0  0  0
   45.5790  -26.5860   30.6860 C   0  0  0  0  0  0  0  0  0  0  0  0
 16  1  1  0
 23  1  2  0
  3  2  1  0
  5  2  1  0
  7  3  1  0
 25  3  1  0
 23  4  1  0
 24  4  2  0
 25  4  1  0
  6  5  1  0
 38  6  1  0
 26  7  1  0
 28  7  2  0
 26  8  1  0
 27  8  2  0
 34  9  1  0
 35  9  2  0
 36  9  1  0
 27 10  1  0
 29 10  1  0
 33 10  2  0
 14 11  1  0
 13 12  2  0
 17 12  1  0
 14 13  1  0
 15 14  2  0
 16 15  1  0
 17 16  2  0
 18 17  1  0
 19 18  1  0
 22 18  1  0
 20 19  2  0
 21 20  1  0
 22 21  2  0
 28 27  1  0
 30 29  2  0
 31 30  1  0
 32 31  2  0
 34 31  1  0
 33 32  1  0
 40 33  1  0
 37 36  1  0
 39 38  1  0
 40 39  1  0
 41 39  1  0
 42 41  2  0
 43 41  1  0
 45 43  1  0
 45 44  1  0
A    1
C13
A    2
C18
A    3
C17
A    4
C15
A    5
C19
A    6
C20
A    7
C22
A    8
C24
A    9
C34
A   10
C27
A   11
CL1
A   12
C2
A   13
C3
A   14
C4
A   15
C5
A   16
C6
A   17
C7
A   18
N8
A   19
C9
A   20
N10
A   21
N11
A   22
N12
A   23
C14
A   24
O16
A   25
N21
A   26
N23
A   27
C25
A   28
N26
A   29
C28
A   30
C29
A   31
C30
A   32
C31
A   33
C32
A   34
N33
A   35
O35
A   36
O36
A   37
C37
A   38
C38
A   39
C39
A   40
N40
A   41
C41
A   42
O42
A   43
O43
A   44
C44
A   45
C45
M  END
>  <Id>  (13) 
5QTX_QLD_A_301

>  <ChainId>  (13) 
A

>  <AsymId>  (13) 
C

>  <SeqNum>  (13) 
301

>  <Name>  (13) 
ethyl (2R,7S)-7-({(2E)-3-[5-chloro-2-(1H-tetrazol-1-yl)phenyl]prop-2-enoyl}amino)-14-[(methoxycarbonyl)amino]-1,2,3,4,5,6,7,9-octahydro-11,8-(azeno)-1,9-benzodiazacyclotridecine-2-carboxylate

>  <SystematicName>  (13) 
ethyl (9~{R},14~{S})-14-[[(~{E})-3-[5-chloranyl-2-(1,2,3,4-tetrazol-1-yl)phenyl]prop-2-enoyl]amino]-5-(methoxycarbonylamino)-8,16,18-triazatricyclo[13.2.1.0^{2,7}]octadeca-1(17),2,4,6,15(18)-pentaene-9-carboxylate

>  <Synonyms>  (13) 


>  <Type>  (13) 
NON-POLYMER

>  <Formula>  (13) 
C30 H32 Cl N9 O5

>  <ObservedFormula>  (13) 
C30 Cl N9 O5

>  <MolecularWeight>  (13) 
634.085

>  <ModifiedDate>  (13) 
2020-01-24

>  <Parent>  (13) 


>  <OneLetterCode>  (13) 


>  <SubcomponentList>  (13) 


>  <AmbiguousFlag>  (13) 
N

>  <InsertionCode>  (13) 


>  <InstanceId>  (13) 
5QTX_QLD_A_301

>  <ChemCompId>  (13) 
QLD

>  <PdbId>  (13) 
5QTX

>  <ResidueNumber>  (13) 
301

>  <InChI>  (13) 
InChI=1S/C30H32ClN9O5/c1-3-45-29(42)23-7-5-4-6-22(36-27(41)13-8-18-14-19(31)9-12-26(18)40-17-33-38-39-40)28-32-16-25(37-28)21-11-10-20(15-24(21)35-23)34-30(43)44-2/h8-17,22-23,35H,3-7H2,1-2H3,(H,32,37)(H,34,43)(H,36,41)/b13-8+/t22-,23+/m0/s1

>  <InChIKey>  (13) 
BNKJNEZXZHRTHJ-GGRGIUQZSA-N

>  <SMILES>  (13) 
CCOC(=O)[C@H]1CCCC[C@@H](c2[nH]cc(n2)-c3ccc(cc3N1)NC(=O)OC)NC(=O)/C=C/c4cc(ccc4n5cnnn5)Cl

>  <MissingHeavyAtoms>  (13) 
0

>  <Model>  (13) 
1

>  <AltIds>  (13) 


>  <pKI>  (13) 
6.69

>  <ChemblID>  (13) 
CHEMBL3699175

>  <standardized_canonical_smiles>  (13) 
CCOC(=O)[C@H]1CCCC[C@H](NC(=O)/C=C/c2cc(Cl)ccc2-n2cnnn2)c2nc(c[nH]2)-c2ccc(NC(=O)OC)cc2N1

$$$$
5QTY_QLJ_A_301
     RDKit          3D

 46 50  0  0  0  0  0  0  0  0999 V2000
   42.7670  -24.0420   29.7850 C   0  0  0  0  0  0  0  0  0  0  0  0
   42.2140  -20.8090   29.2740 C   0  0  0  0  0  0  0  0  0  0  0  0
   43.5500  -20.9230   28.9030 C   0  0  0  0  0  0  0  0  0  0  0  0
   43.8690  -20.7020   27.5630 C   0  0  0  0  0  0  0  0  0  0  0  0
   48.6800  -21.9500   33.0210 C   0  0  0  0  0  0  0  0  0  0  0  0
   50.5710  -22.0690   34.4370 C   0  0  0  0  0  0  0  0  0  0  0  0
   39.2160  -21.9050   27.9500 C   0  0  0  0  0  0  0  0  0  0  0  0
   40.0180  -23.2160   28.2030 C   0  0  0  0  0  0  0  0  0  0  0  0
   39.7880  -20.6800   28.6700 C   0  0  0  0  0  0  0  0  0  0  0  0
   35.4530  -13.2680   27.6720 C   0  0  0  0  0  0  0  0  0  0  0  0
   38.9650  -18.5310   29.4140 C   0  0  0  0  0  0  0  0  0  0  0  0
   36.4980  -13.5080   26.7840 C   0  0  0  0  0  0  0  0  0  0  0  0
   33.6860  -14.0290   29.5800 Cl  0  0  0  0  0  0  0  0  0  0  0  0
   44.2980  -22.3370   30.8800 C   0  0  0  0  0  0  0  0  0  0  0  0
   44.5680  -21.3630   29.8950 C   0  0  0  0  0  0  0  0  0  0  0  0
   45.8080  -20.7090   29.9170 C   0  0  0  0  0  0  0  0  0  0  0  0
   46.7510  -21.0010   30.8850 C   0  0  0  0  0  0  0  0  0  0  0  0
   46.4640  -21.9220   31.8890 C   0  0  0  0  0  0  0  0  0  0  0  0
   45.2380  -22.5830   31.8750 C   0  0  0  0  0  0  0  0  0  0  0  0
   43.1080  -23.0860   30.8400 N   0  0  0  0  0  0  0  0  0  0  0  0
   47.3660  -22.2850   32.9240 N   0  0  0  0  0  0  0  0  0  0  0  0
   41.2530  -20.5420   28.3120 C   0  0  0  0  0  0  0  0  0  0  0  0
   39.0240  -19.4540   28.4330 N   0  0  0  0  0  0  0  0  0  0  0  0
   41.5530  -20.3310   27.0200 N   0  0  0  0  0  0  0  0  0  0  0  0
   42.8530  -20.4120   26.6700 C   0  0  0  0  0  0  0  0  0  0  0  0
   49.3310  -21.3640   32.1890 O   0  0  0  0  0  0  0  0  0  0  0  0
   49.1670  -22.3570   34.2030 O   0  0  0  0  0  0  0  0  0  0  0  0
   40.2030  -23.6070   29.6840 C   0  0  0  0  0  0  0  0  0  0  0  0
   41.3450  -24.5970   29.9680 C   0  0  0  0  0  0  0  0  0  0  0  0
   38.1720  -17.3170   29.1280 C   0  0  0  0  0  0  0  0  0  0  0  0
   39.5620  -18.6730   30.4730 O   0  0  0  0  0  0  0  0  0  0  0  0
   37.6460  -16.9120   27.9910 C   0  0  0  0  0  0  0  0  0  0  0  0
   36.9190  -15.6440   27.8430 C   0  0  0  0  0  0  0  0  0  0  0  0
   37.2090  -14.7070   26.8400 C   0  0  0  0  0  0  0  0  0  0  0  0
   35.1070  -14.2440   28.5870 C   0  0  0  0  0  0  0  0  0  0  0  0
   35.8300  -15.4140   28.6970 C   0  0  0  0  0  0  0  0  0  0  0  0
   38.3200  -14.9220   25.9660 N   0  0  0  0  0  0  0  0  0  0  0  0
   38.5360  -14.6730   24.6710 C   0  0  0  0  0  0  0  0  0  0  0  0
   39.7930  -14.8620   24.3840 N   0  0  0  0  0  0  0  0  0  0  0  0
   40.3900  -15.1760   25.5590 N   0  0  0  0  0  0  0  0  0  0  0  0
   39.5220  -15.2120   26.5230 N   0  0  0  0  0  0  0  0  0  0  0  0
   43.7480  -25.2010   29.6650 C   0  0  0  0  0  0  0  0  0  0  0  0
   43.8840  -25.8530   28.6680 O   0  0  0  0  0  0  0  0  0  0  0  0
   44.4110  -25.4170   30.7990 O   0  0  0  0  0  0  0  0  0  0  0  0
   46.1950  -26.3850   32.0810 C   0  0  0  0  0  0  0  0  0  0  0  0
   45.3990  -26.5000   30.8130 C   0  0  0  0  0  0  0  0  0  0  0  0
 20  1  1  0
 29  1  1  0
 42  1  1  0
  3  2  1  0
 22  2  2  0
  4  3  2  0
 15  3  1  0
 25  4  1  0
 21  5  1  0
 26  5  2  0
 27  5  1  0
 27  6  1  0
  8  7  1  0
  9  7  1  0
 28  8  1  0
 22  9  1  0
 23  9  1  0
 12 10  2  0
 35 10  1  0
 23 11  1  0
 30 11  1  0
 31 11  2  0
 34 12  1  0
 35 13  1  0
 15 14  2  0
 19 14  1  0
 20 14  1  0
 16 15  1  0
 17 16  2  0
 18 17  1  0
 19 18  2  0
 21 18  1  0
 24 22  1  0
 25 24  2  0
 29 28  1  0
 32 30  2  0
 33 32  1  0
 34 33  2  0
 36 33  1  0
 37 34  1  0
 36 35  2  0
 38 37  1  0
 41 37  1  0
 39 38  2  0
 40 39  1  0
 41 40  2  0
 43 42  2  0
 44 42  1  0
 46 44  1  0
 46 45  1  0
A    1
C18
A    2
C17
A    3
C16
A    4
C15
A    5
C19
A    6
C22
A    7
C23
A    8
C24
A    9
C11
A   10
C34
A   11
C27
A   12
C33
A   13
CL1
A   14
C2
A   15
C3
A   16
C4
A   17
C5
A   18
C6
A   19
C7
A   20
N8
A   21
N9
A   22
C10
A   23
N12
A   24
N13
A   25
C14
A   26
O20
A   27
O21
A   28
C25
A   29
C26
A   30
C28
A   31
O29
A   32
C30
A   33
C31
A   34
C32
A   35
C35
A   36
C36
A   37
N37
A   38
C38
A   39
N39
A   40
N40
A   41
N41
A   42
C42
A   43
O43
A   44
O44
A   45
C45
A   46
C46
M  END
>  <Id>  (14) 
5QTY_QLJ_A_301

>  <ChainId>  (14) 
A

>  <AsymId>  (14) 
B

>  <SeqNum>  (14) 
301

>  <Name>  (14) 
ethyl (2R,7S)-7-({(2E)-3-[5-chloro-2-(1H-tetrazol-1-yl)phenyl]prop-2-enoyl}amino)-15-[(methoxycarbonyl)amino]-2,3,4,5,6,7-hexahydro-1H-12,8-(metheno)-1,9-benzodiazacyclotetradecine-2-carboxylate

>  <SystematicName>  (14) 
ethyl (9~{R},14~{S})-14-[[(~{E})-3-[5-chloranyl-2-(1,2,3,4-tetrazol-1-yl)phenyl]prop-2-enoyl]amino]-5-(methoxycarbonylamino)-8,16-diazatricyclo[13.3.1.0^{2,7}]nonadeca-1(18),2,4,6,15(19),16-hexaene-9-carboxylate

>  <Synonyms>  (14) 


>  <Type>  (14) 
NON-POLYMER

>  <Formula>  (14) 
C32 H33 Cl N8 O5

>  <ObservedFormula>  (14) 
C32 Cl N8 O5

>  <MolecularWeight>  (14) 
645.108

>  <ModifiedDate>  (14) 
2020-01-24

>  <Parent>  (14) 


>  <OneLetterCode>  (14) 


>  <SubcomponentList>  (14) 


>  <AmbiguousFlag>  (14) 
N

>  <InsertionCode>  (14) 


>  <InstanceId>  (14) 
5QTY_QLJ_A_301

>  <ChemCompId>  (14) 
QLJ

>  <PdbId>  (14) 
5QTY

>  <ResidueNumber>  (14) 
301

>  <InChI>  (14) 
InChI=1S/C32H33ClN8O5/c1-3-46-31(43)26-7-5-4-6-25(38-30(42)13-8-21-16-22(33)9-12-29(21)41-19-35-39-40-41)28-17-20(14-15-34-28)24-11-10-23(18-27(24)37-26)36-32(44)45-2/h8-19,25-26,37H,3-7H2,1-2H3,(H,36,44)(H,38,42)/b13-8+/t25-,26+/m0/s1

>  <InChIKey>  (14) 
SBASSQZHYOTWFU-RXPDHRDVSA-N

>  <SMILES>  (14) 
CCOC(=O)[C@H]1CCCC[C@@H](c2cc(ccn2)-c3ccc(cc3N1)NC(=O)OC)NC(=O)/C=C/c4cc(ccc4n5cnnn5)Cl

>  <MissingHeavyAtoms>  (14) 
0

>  <Model>  (14) 
1

>  <AltIds>  (14) 


>  <pKI>  (14) 
6.24

>  <ChemblID>  (14) 
CHEMBL3699231

>  <standardized_canonical_smiles>  (14) 
CCOC(=O)C1CCCC[C@H](NC(=O)/C=C/c2cc(Cl)ccc2-n2cnnn2)c2cc(ccn2)-c2ccc(NC(=O)OC)cc2N1

$$$$
5E2O_5JM_A_301
     RDKit          3D

 37 40  0  0  0  0  0  0  0  0999 V2000
   42.1080  -21.1080   29.8130 N   0  0  0  0  0  0  0  0  0  0  0  0
   46.2810  -21.1150   30.4520 C   0  0  0  0  0  0  0  0  0  0  0  0
   45.7530  -20.5180   29.3110 C   0  0  0  0  0  0  0  0  0  0  0  0
   44.3890  -20.5170   29.0760 C   0  0  0  0  0  0  0  0  0  0  0  0
   43.5150  -21.0780   30.0030 C   0  0  0  0  0  0  0  0  0  0  0  0
   45.4000  -21.6660   31.3820 C   0  0  0  0  0  0  0  0  0  0  0  0
   44.0320  -21.6460   31.1630 C   0  0  0  0  0  0  0  0  0  0  0  0
   38.0400  -17.6890   29.3210 C   0  0  0  0  0  0  0  0  0  0  0  0
   38.0280  -16.8770   28.2790 C   0  0  0  0  0  0  0  0  0  0  0  0
   37.0770  -15.7860   27.9950 C   0  0  0  0  0  0  0  0  0  0  0  0
   37.4890  -14.7900   27.0940 C   0  0  0  0  0  0  0  0  0  0  0  0
   41.9330  -24.9780   28.0390 C   0  0  0  0  0  0  0  0  0  0  0  0
   41.1740  -23.9130   27.5690 C   0  0  0  0  0  0  0  0  0  0  0  0
   35.2120  -14.3910   28.6360 C   0  0  0  0  0  0  0  0  0  0  0  0
   39.1150  -18.6930   29.4900 C   0  0  0  0  0  0  0  0  0  0  0  0
   39.1310  -19.6990   28.5920 N   0  0  0  0  0  0  0  0  0  0  0  0
   39.7460  -18.8040   30.5470 O   0  0  0  0  0  0  0  0  0  0  0  0
   39.8820  -20.9100   28.8650 C   0  0  0  0  0  0  0  0  0  0  0  0
   41.3800  -20.6650   28.7600 C   0  0  0  0  0  0  0  0  0  0  0  0
   39.4880  -22.0730   27.9380 C   0  0  0  0  0  0  0  0  0  0  0  0
   40.1530  -23.3720   28.3410 C   0  0  0  0  0  0  0  0  0  0  0  0
   39.8840  -23.9530   29.5750 C   0  0  0  0  0  0  0  0  0  0  0  0
   40.6470  -25.0080   30.0480 C   0  0  0  0  0  0  0  0  0  0  0  0
   41.6730  -25.5200   29.2830 C   0  0  0  0  0  0  0  0  0  0  0  0
   41.8490  -20.1670   27.7410 O   0  0  0  0  0  0  0  0  0  0  0  0
   36.7870  -13.5830   27.0240 C   0  0  0  0  0  0  0  0  0  0  0  0
   35.6430  -13.3840   27.7890 C   0  0  0  0  0  0  0  0  0  0  0  0
   35.9020  -15.5910   28.7420 C   0  0  0  0  0  0  0  0  0  0  0  0
   33.7990  -14.1240   29.6260 Cl  0  0  0  0  0  0  0  0  0  0  0  0
   38.5570  -15.0190   26.1760 N   0  0  0  0  0  0  0  0  0  0  0  0
   38.6620  -14.9920   24.8330 C   0  0  0  0  0  0  0  0  0  0  0  0
   39.8720  -15.2980   24.4580 N   0  0  0  0  0  0  0  0  0  0  0  0
   40.5540  -15.5380   25.6020 N   0  0  0  0  0  0  0  0  0  0  0  0
   39.7900  -15.3710   26.6330 N   0  0  0  0  0  0  0  0  0  0  0  0
   47.7590  -21.1220   30.6810 C   0  0  0  0  0  0  0  0  0  0  0  0
   48.5190  -20.4240   30.0070 O   0  0  0  0  0  0  0  0  0  0  0  0
   48.1570  -21.8030   31.7180 O   0  0  0  0  0  0  0  0  0  0  0  0
  5  1  1  0
 19  1  1  0
  3  2  2  0
  6  2  1  0
 35  2  1  0
  4  3  1  0
  5  4  2  0
  7  5  1  0
  7  6  2  0
  9  8  2  0
 15  8  1  0
 10  9  1  0
 11 10  1  0
 28 10  2  0
 26 11  2  0
 30 11  1  0
 13 12  2  0
 24 12  1  0
 21 13  1  0
 27 14  2  0
 28 14  1  0
 29 14  1  0
 16 15  1  0
 17 15  2  0
 18 16  1  0
 19 18  1  0
 20 18  1  0
 25 19  2  0
 21 20  1  0
 22 21  2  0
 23 22  1  0
 24 23  2  0
 27 26  1  0
 31 30  1  0
 34 30  1  0
 32 31  2  0
 33 32  1  0
 34 33  2  0
 36 35  2  0
 37 35  1  0
A    1
N14
A    2
C18
A    3
C17
A    4
C16
A    5
C15
A    6
C19
A    7
C20
A    8
C21
A    9
C22
A   10
C23
A   11
C24
A   12
C11
A   13
C12
A   14
C27
A   15
C1
A   16
N2
A   17
O3
A   18
C4
A   19
C5
A   20
C6
A   21
C7
A   22
C8
A   23
C9
A   24
C10
A   25
O13
A   26
C25
A   27
C26
A   28
C28
A   29
CL2
A   30
N30
A   31
C31
A   32
N32
A   33
N33
A   34
N34
A   35
C35
A   36
O36
A   37
O37
M  END
>  <Id>  (15) 
5E2O_5JM_A_301

>  <ChainId>  (15) 
A

>  <AsymId>  (15) 
B

>  <SeqNum>  (15) 
301

>  <Name>  (15) 
4-[(N-{(2E)-3-[5-chloro-2-(1H-tetrazol-1-yl)phenyl]prop-2-enoyl}-L-phenylalanyl)amino]benzoic acid

>  <SystematicName>  (15) 
4-[[(2S)-2-[[(E)-3-[5-chloranyl-2-(1,2,3,4-tetrazol-1-yl)phenyl]prop-2-enoyl]amino]-3-phenyl-propanoyl]amino]benzoic acid

>  <Synonyms>  (15) 


>  <Type>  (15) 
NON-POLYMER

>  <Formula>  (15) 
C26 H21 Cl N6 O4

>  <ObservedFormula>  (15) 
C26 Cl N6 O4

>  <MolecularWeight>  (15) 
516.936

>  <ModifiedDate>  (15) 
2015-12-04

>  <Parent>  (15) 


>  <OneLetterCode>  (15) 


>  <SubcomponentList>  (15) 


>  <AmbiguousFlag>  (15) 
N

>  <InsertionCode>  (15) 


>  <InstanceId>  (15) 
5E2O_5JM_A_301

>  <ChemCompId>  (15) 
5JM

>  <PdbId>  (15) 
5E2O

>  <ResidueNumber>  (15) 
301

>  <InChI>  (15) 
InChI=1S/C26H21ClN6O4/c27-20-9-12-23(33-16-28-31-32-33)19(15-20)8-13-24(34)30-22(14-17-4-2-1-3-5-17)25(35)29-21-10-6-18(7-11-21)26(36)37/h1-13,15-16,22H,14H2,(H,29,35)(H,30,34)(H,36,37)/b13-8+/t22-/m0/s1

>  <InChIKey>  (15) 
FMPAHDTULKAUPN-SYZXBLONSA-N

>  <SMILES>  (15) 
c1ccc(cc1)C[C@@H](C(=O)Nc2ccc(cc2)C(=O)O)NC(=O)/C=C/c3cc(ccc3n4cnnn4)Cl

>  <MissingHeavyAtoms>  (15) 
0

>  <Model>  (15) 
1

>  <AltIds>  (15) 


>  <pKI>  (15) 
8.7

>  <ChemblID>  (15) 
CHEMBL3754069

>  <standardized_canonical_smiles>  (15) 
O=C(/C=C/c1cc(Cl)ccc1-n1cnnn1)N[C@@H](Cc1ccccc1)C(=O)Nc1ccc(C(=O)O)cc1

$$$$
4CRC_OTM_A_1245
     RDKit          3D

 39 43  0  0  0  0  0  0  0  0999 V2000
  -49.6480  -10.0190  -23.1830 C   0  0  0  0  0  0  0  0  0  0  0  0
  -49.5490   -9.1530  -24.0370 O   0  0  0  0  0  0  0  0  0  0  0  0
  -48.8370   -9.8910  -21.9370 C   0  0  0  0  0  0  0  0  0  0  0  0
  -48.9650  -10.7230  -20.8910 C   0  0  0  0  0  0  0  0  0  0  0  0
  -48.1040  -10.4910  -19.7110 C   0  0  0  0  0  0  0  0  0  0  0  0
  -46.7240  -10.5330  -19.8310 C   0  0  0  0  0  0  0  0  0  0  0  0
  -45.8880  -10.3210  -18.7440 C   0  0  0  0  0  0  0  0  0  0  0  0
  -46.4330  -10.0600  -17.5000 C   0  0  0  0  0  0  0  0  0  0  0  0
  -47.8020  -10.0200  -17.3550 C   0  0  0  0  0  0  0  0  0  0  0  0
  -48.6190  -10.2320  -18.4510 C   0  0  0  0  0  0  0  0  0  0  0  0
  -50.0050  -10.1780  -18.2410 N   0  0  0  0  0  0  0  0  0  0  0  0
  -50.7520  -10.9460  -17.4020 C   0  0  0  0  0  0  0  0  0  0  0  0
  -52.0150  -10.6060  -17.5350 N   0  0  0  0  0  0  0  0  0  0  0  0
  -52.0430   -9.6120  -18.4750 N   0  0  0  0  0  0  0  0  0  0  0  0
  -50.8170   -9.3500  -18.9090 N   0  0  0  0  0  0  0  0  0  0  0  0
  -44.1560  -10.3840  -18.9270 Cl  0  0  0  0  0  0  0  0  0  0  0  0
  -50.4570  -11.1150  -23.3470 N   0  0  0  0  0  0  0  0  0  0  0  0
  -51.1730  -11.2510  -24.6160 C   0  0  0  0  0  0  0  0  0  0  0  0
  -52.4350  -10.4130  -24.5540 C   0  0  0  0  0  0  0  0  0  0  0  0
  -53.2680  -10.5010  -23.6580 O   0  0  0  0  0  0  0  0  0  0  0  0
  -51.5780  -12.7000  -24.8350 C   0  0  0  0  0  0  0  0  0  0  0  0
  -52.1550  -12.9720  -26.1910 C   0  0  0  0  0  0  0  0  0  0  0  0
  -53.2220  -13.8400  -26.2980 C   0  0  0  0  0  0  0  0  0  0  0  0
  -51.6520  -12.3940  -27.3410 C   0  0  0  0  0  0  0  0  0  0  0  0
  -53.7800  -14.1270  -27.5310 C   0  0  0  0  0  0  0  0  0  0  0  0
  -52.2010  -12.6760  -28.5760 C   0  0  0  0  0  0  0  0  0  0  0  0
  -53.2670  -13.5480  -28.6730 C   0  0  0  0  0  0  0  0  0  0  0  0
  -52.5270   -9.5740  -25.6500 N   0  0  0  0  0  0  0  0  0  0  0  0
  -53.5330   -8.6130  -25.9140 C   0  0  0  0  0  0  0  0  0  0  0  0
  -53.4560   -7.9090  -27.0930 C   0  0  0  0  0  0  0  0  0  0  0  0
  -54.3960   -6.9530  -27.4180 C   0  0  0  0  0  0  0  0  0  0  0  0
  -55.4370   -6.6920  -26.5470 C   0  0  0  0  0  0  0  0  0  0  0  0
  -55.5180   -7.4000  -25.3680 C   0  0  0  0  0  0  0  0  0  0  0  0
  -54.5820   -8.3620  -25.0490 C   0  0  0  0  0  0  0  0  0  0  0  0
  -56.4050   -5.6620  -26.8340 C   0  0  0  0  0  0  0  0  0  0  0  0
  -56.6930   -5.1960  -28.0820 N   0  0  0  0  0  0  0  0  0  0  0  0
  -57.6210   -4.2340  -28.0010 N   0  0  0  0  0  0  0  0  0  0  0  0
  -57.8840   -4.1100  -26.7060 N   0  0  0  0  0  0  0  0  0  0  0  0
  -57.1390   -4.9880  -25.9730 N   0  0  0  0  0  0  0  0  0  0  0  0
  2  1  2  0
  3  1  1  0
 17  1  1  0
  4  3  2  0
  5  4  1  0
  6  5  2  0
 10  5  1  0
  7  6  1  0
  8  7  2  0
 16  7  1  0
  9  8  1  0
 10  9  2  0
 11 10  1  0
 12 11  1  0
 15 11  1  0
 13 12  2  0
 14 13  1  0
 15 14  2  0
 18 17  1  0
 19 18  1  0
 21 18  1  0
 20 19  2  0
 28 19  1  0
 22 21  1  0
 23 22  2  0
 24 22  1  0
 25 23  1  0
 26 24  2  0
 27 25  2  0
 27 26  1  0
 29 28  1  0
 30 29  2  0
 34 29  1  0
 31 30  1  0
 32 31  2  0
 33 32  1  0
 35 32  1  0
 34 33  2  0
 36 35  1  0
 39 35  2  0
 37 36  1  0
 38 37  2  0
 39 38  1  0
A    1
C24
A    2
O25
A    3
C26
A    4
C27
A    5
C28
A    6
C29
A    7
C30
A    8
C31
A    9
C32
A   10
C33
A   11
N34
A   12
C35
A   13
N36
A   14
N37
A   15
N38
A   16
CL
A   17
N23
A   18
C8
A   19
C9
A   20
O10
A   21
C7
A   22
C4
A   23
C3
A   24
C5
A   25
C2
A   26
C6
A   27
C1
A   28
N11
A   29
C12
A   30
C13
A   31
C14
A   32
C15
A   33
C16
A   34
C17
A   35
C18
A   36
N19
A   37
N20
A   38
N21
A   39
N22
M  END
>  <Id>  (16) 
4CRC_OTM_A_1245

>  <ChainId>  (16) 
A

>  <AsymId>  (16) 
B

>  <SeqNum>  (16) 
1245

>  <Name>  (16) 
(2S)-2-[[(E)-3-[5-chloranyl-2-(1,2,3,4-tetrazol-1-yl)phenyl]prop-2-enoyl]amino]-3-phenyl-N-[4-(1H-1,2,3,4-tetrazol-5-yl)phenyl]propanamide

>  <SystematicName>  (16) 
(2S)-2-[[(E)-3-[5-chloranyl-2-(1,2,3,4-tetrazol-1-yl)phenyl]prop-2-enoyl]amino]-3-phenyl-N-[4-(1H-1,2,3,4-tetrazol-5-yl)phenyl]propanamide

>  <Synonyms>  (16) 


>  <Type>  (16) 
non-polymer

>  <Formula>  (16) 
C26 H21 Cl N10 O2

>  <ObservedFormula>  (16) 
C26 Cl N10 O2

>  <MolecularWeight>  (16) 
540.964

>  <ModifiedDate>  (16) 
2015-02-06

>  <Parent>  (16) 


>  <OneLetterCode>  (16) 


>  <SubcomponentList>  (16) 
E29 PHE E30

>  <AmbiguousFlag>  (16) 
N

>  <InsertionCode>  (16) 


>  <InstanceId>  (16) 
4CRC_OTM_A_1245

>  <ChemCompId>  (16) 
OTM

>  <PdbId>  (16) 
4CRC

>  <ResidueNumber>  (16) 
1245

>  <InChI>  (16) 
InChI=1S/C26H21ClN10O2/c27-20-9-12-23(37-16-28-33-36-37)19(15-20)8-13-24(38)30-22(14-17-4-2-1-3-5-17)26(39)29-21-10-6-18(7-11-21)25-31-34-35-32-25/h1-13,15-16,22H,14H2,(H,29,39)(H,30,38)(H,31,32,34,35)/b13-8+/t22-/m0/s1

>  <InChIKey>  (16) 
YGQQLNQKNAXOKN-SYZXBLONSA-N

>  <SMILES>  (16) 
c1ccc(cc1)C[C@@H](C(=O)Nc2ccc(cc2)c3[nH]nnn3)NC(=O)/C=C/c4cc(ccc4n5cnnn5)Cl

>  <MissingHeavyAtoms>  (16) 
0

>  <Model>  (16) 
1

>  <AltIds>  (16) 


>  <pKI>  (16) 
8.85

>  <ChemblID>  (16) 
CHEMBL3753020

>  <standardized_canonical_smiles>  (16) 
O=C(/C=C/c1cc(Cl)ccc1-n1cnnn1)N[C@@H](Cc1ccccc1)C(=O)Nc1ccc(-c2nn[nH]n2)cc1

$$$$
4CRB_7P0_A_1485
     RDKit          3D

 40 44  0  0  0  0  0  0  0  0999 V2000
   26.2000    9.5370   55.0110 C   0  0  0  0  0  0  0  0  0  0  0  0
   25.3570    9.9080   55.8240 O   0  0  0  0  0  0  0  0  0  0  0  0
   27.1740    8.4730   55.3670 C   0  0  0  0  0  0  0  0  0  0  0  0
   28.3860    8.3750   54.7050 C   0  0  0  0  0  0  0  0  0  0  0  0
   29.2700    7.3790   55.0660 C   0  0  0  0  0  0  0  0  0  0  0  0
   28.9450    6.4940   56.0840 C   0  0  0  0  0  0  0  0  0  0  0  0
   27.7430    6.5930   56.7400 C   0  0  0  0  0  0  0  0  0  0  0  0
   26.8570    7.5880   56.3810 C   0  0  0  0  0  0  0  0  0  0  0  0
   27.4610    5.6350   57.8180 C   0  0  0  0  0  0  0  0  0  0  0  0
   28.3190    4.6720   58.1800 C   0  0  0  0  0  0  0  0  0  0  0  0
   29.6090    4.5560   57.4780 C   0  0  0  0  0  0  0  0  0  0  0  0
   30.4060    3.6780   57.8010 O   0  0  0  0  0  0  0  0  0  0  0  0
   29.8400    5.4800   56.4710 N   0  0  0  0  0  0  0  0  0  0  0  0
   26.2580    5.7780   58.4400 O   0  0  0  0  0  0  0  0  0  0  0  0
   26.3400   10.0950   53.7540 N   0  0  0  0  0  0  0  0  0  0  0  0
   25.6060   11.2790   53.3790 C   0  0  0  0  0  0  0  0  0  0  0  0
   24.8570   10.8830   52.1290 C   0  0  0  0  0  0  0  0  0  0  0  0
   25.2390   10.0020   51.3770 O   0  0  0  0  0  0  0  0  0  0  0  0
   26.5660   12.3950   53.0010 C   0  0  0  0  0  0  0  0  0  0  0  0
   27.5820   12.7140   54.0590 C   0  0  0  0  0  0  0  0  0  0  0  0
   27.1840   13.2180   55.2810 C   0  0  0  0  0  0  0  0  0  0  0  0
   28.9210   12.5150   53.8120 C   0  0  0  0  0  0  0  0  0  0  0  0
   28.1100   13.5210   56.2530 C   0  0  0  0  0  0  0  0  0  0  0  0
   29.8530   12.8100   54.7860 C   0  0  0  0  0  0  0  0  0  0  0  0
   29.4490   13.3140   56.0040 C   0  0  0  0  0  0  0  0  0  0  0  0
   18.6600   11.2170   48.9850 C   0  0  0  0  0  0  0  0  0  0  0  0
   18.8700   11.3940   47.6230 C   0  0  0  0  0  0  0  0  0  0  0  0
   20.0790   11.8940   47.1840 C   0  0  0  0  0  0  0  0  0  0  0  0
   21.0630   12.2140   48.1020 C   0  0  0  0  0  0  0  0  0  0  0  0
   20.8720   12.0500   49.4640 C   0  0  0  0  0  0  0  0  0  0  0  0
   19.6540   11.5460   49.8970 C   0  0  0  0  0  0  0  0  0  0  0  0
   20.3650   12.1350   45.4710 Cl  0  0  0  0  0  0  0  0  0  0  0  0
   19.4020   11.3720   51.2760 N   0  0  0  0  0  0  0  0  0  0  0  0
   19.9170   10.4290   52.1240 C   0  0  0  0  0  0  0  0  0  0  0  0
   19.3750   10.5760   53.3200 N   0  0  0  0  0  0  0  0  0  0  0  0
   18.5080   11.6310   53.1910 N   0  0  0  0  0  0  0  0  0  0  0  0
   18.5170   12.1240   51.9570 N   0  0  0  0  0  0  0  0  0  0  0  0
   21.9770   12.4320   50.4060 C   0  0  0  0  0  0  0  0  0  0  0  0
   22.8470   11.2630   50.7970 C   0  0  0  0  0  0  0  0  0  0  0  0
   23.7030   11.6050   51.9140 N   0  0  0  0  0  0  0  0  0  0  0  0
  2  1  2  0
  3  1  1  0
 15  1  1  0
  4  3  2  0
  8  3  1  0
  5  4  1  0
  6  5  2  0
  7  6  1  0
 13  6  1  0
  8  7  2  0
  9  7  1  0
 10  9  2  0
 14  9  1  0
 11 10  1  0
 12 11  2  0
 13 11  1  0
 16 15  1  0
 17 16  1  0
 19 16  1  0
 18 17  2  0
 40 17  1  0
 20 19  1  0
 21 20  2  0
 22 20  1  0
 23 21  1  0
 24 22  2  0
 25 23  2  0
 25 24  1  0
 27 26  2  0
 31 26  1  0
 28 27  1  0
 29 28  2  0
 32 28  1  0
 30 29  1  0
 31 30  2  0
 38 30  1  0
 33 31  1  0
 34 33  1  0
 37 33  1  0
 35 34  2  0
 36 35  1  0
 37 36  2  0
 39 38  1  0
 40 39  1  0
A    1
C20
A    2
O22
A    3
C21
A    4
C23
A    5
C24
A    6
C27
A    7
C26
A    8
C25
A    9
C31
A   10
C30
A   11
C29
A   12
O32
A   13
N28
A   14
O40
A   15
N19
A   16
C17
A   17
C16
A   18
O39
A   19
C18
A   20
C33
A   21
C34
A   22
C38
A   23
C35
A   24
C37
A   25
C36
A   26
C1
A   27
C2
A   28
C3
A   29
C4
A   30
C5
A   31
C6
A   32
CL7
A   33
N8
A   34
C9
A   35
N10
A   36
N11
A   37
N12
A   38
C13
A   39
C14
A   40
N15
M  END
>  <Id>  (17) 
4CRB_7P0_A_1485

>  <ChainId>  (17) 
A

>  <AsymId>  (17) 
D

>  <SeqNum>  (17) 
1485

>  <Name>  (17) 
N-[(1S)-1-benzyl-2-[2-[5-chloro-2-(tetrazol-1-yl)phenyl]ethylamino]-2-oxo-ethyl]-4-hydroxy-2-oxo-1H-quinoline-6-carboxamide

>  <SystematicName>  (17) 
N-[(2S)-1-[2-[5-chloranyl-2-(1,2,3,4-tetrazol-1-yl)phenyl]ethylamino]-1-oxidanylidene-3-phenyl-propan-2-yl]-4-oxidanyl-2-oxidanylidene-1H-quinoline-6-carboxamide

>  <Synonyms>  (17) 


>  <Type>  (17) 
non-polymer

>  <Formula>  (17) 
C28 H24 Cl N7 O4

>  <ObservedFormula>  (17) 
C28 Cl N7 O4

>  <MolecularWeight>  (17) 
557.988

>  <ModifiedDate>  (17) 
2015-02-06

>  <Parent>  (17) 


>  <OneLetterCode>  (17) 


>  <SubcomponentList>  (17) 
7DM PHE BXR

>  <AmbiguousFlag>  (17) 
N

>  <InsertionCode>  (17) 


>  <InstanceId>  (17) 
4CRB_7P0_A_1485

>  <ChemCompId>  (17) 
7P0

>  <PdbId>  (17) 
4CRB

>  <ResidueNumber>  (17) 
1485

>  <InChI>  (17) 
InChI=1S/C28H24ClN7O4/c29-20-7-9-24(36-16-31-34-35-36)18(13-20)10-11-30-28(40)23(12-17-4-2-1-3-5-17)33-27(39)19-6-8-22-21(14-19)25(37)15-26(38)32-22/h1-9,13-16,23H,10-12H2,(H,30,40)(H,33,39)(H2,32,37,38)/t23-/m0/s1

>  <InChIKey>  (17) 
JAUUPTJHJIUVMZ-QHCPKHFHSA-N

>  <SMILES>  (17) 
c1ccc(cc1)C[C@@H](C(=O)NCCc2cc(ccc2n3cnnn3)Cl)NC(=O)c4ccc5c(c4)C(=CC(=O)N5)O

>  <MissingHeavyAtoms>  (17) 
0

>  <Model>  (17) 
1

>  <AltIds>  (17) 


>  <pKI>  (17) 
8.8

>  <ChemblID>  (17) 
CHEMBL3754781

>  <standardized_canonical_smiles>  (17) 
O=C(N[C@@H](Cc1ccccc1)C(=O)NCCc1cc(Cl)ccc1-n1cnnn1)c1ccc2[nH]c(=O)cc(O)c2c1

$$$$
5E2P_7P0_A_301
     RDKit          3D

 40 44  0  0  0  0  0  0  0  0999 V2000
   42.9850  -20.9830   29.3140 C   0  0  0  0  0  0  0  0  0  0  0  0
   43.2650  -20.7550   28.1400 O   0  0  0  0  0  0  0  0  0  0  0  0
   44.0600  -21.3230   30.2960 C   0  0  0  0  0  0  0  0  0  0  0  0
   43.7760  -22.0270   31.4690 C   0  0  0  0  0  0  0  0  0  0  0  0
   44.7790  -22.3370   32.3700 C   0  0  0  0  0  0  0  0  0  0  0  0
   46.1080  -21.9960   32.0960 C   0  0  0  0  0  0  0  0  0  0  0  0
   46.4180  -21.3190   30.8970 C   0  0  0  0  0  0  0  0  0  0  0  0
   45.3790  -20.9660   30.0190 C   0  0  0  0  0  0  0  0  0  0  0  0
   47.8270  -21.0910   30.6400 C   0  0  0  0  0  0  0  0  0  0  0  0
   48.7770  -21.4840   31.5270 C   0  0  0  0  0  0  0  0  0  0  0  0
   48.4630  -22.1270   32.7630 C   0  0  0  0  0  0  0  0  0  0  0  0
   49.2950  -22.4070   33.6340 O   0  0  0  0  0  0  0  0  0  0  0  0
   47.1340  -22.3640   32.9750 N   0  0  0  0  0  0  0  0  0  0  0  0
   48.1030  -20.5090   29.5000 O   0  0  0  0  0  0  0  0  0  0  0  0
   41.7140  -20.9590   29.7740 N   0  0  0  0  0  0  0  0  0  0  0  0
   40.5690  -20.7300   28.9100 C   0  0  0  0  0  0  0  0  0  0  0  0
   39.8590  -19.4740   29.3890 C   0  0  0  0  0  0  0  0  0  0  0  0
   39.9610  -19.1120   30.5600 O   0  0  0  0  0  0  0  0  0  0  0  0
   39.5780  -21.9100   28.9250 C   0  0  0  0  0  0  0  0  0  0  0  0
   40.2400  -23.2660   28.9120 C   0  0  0  0  0  0  0  0  0  0  0  0
   40.1780  -24.0900   30.0270 C   0  0  0  0  0  0  0  0  0  0  0  0
   41.0390  -23.6540   27.8450 C   0  0  0  0  0  0  0  0  0  0  0  0
   40.9560  -25.2300   30.1120 C   0  0  0  0  0  0  0  0  0  0  0  0
   41.8090  -24.8040   27.9200 C   0  0  0  0  0  0  0  0  0  0  0  0
   41.7830  -25.5860   29.0630 C   0  0  0  0  0  0  0  0  0  0  0  0
   36.7230  -13.6350   27.2900 C   0  0  0  0  0  0  0  0  0  0  0  0
   35.6070  -13.4260   28.0880 C   0  0  0  0  0  0  0  0  0  0  0  0
   35.0990  -14.4750   28.8250 C   0  0  0  0  0  0  0  0  0  0  0  0
   35.6650  -15.7320   28.7740 C   0  0  0  0  0  0  0  0  0  0  0  0
   36.7580  -15.9670   27.9450 C   0  0  0  0  0  0  0  0  0  0  0  0
   37.2950  -14.9030   27.2080 C   0  0  0  0  0  0  0  0  0  0  0  0
   33.7020  -14.2100   29.8480 Cl  0  0  0  0  0  0  0  0  0  0  0  0
   38.4030  -15.1090   26.3310 N   0  0  0  0  0  0  0  0  0  0  0  0
   38.4960  -15.1640   24.9930 C   0  0  0  0  0  0  0  0  0  0  0  0
   39.7290  -15.4170   24.6510 N   0  0  0  0  0  0  0  0  0  0  0  0
   40.4210  -15.5170   25.8140 N   0  0  0  0  0  0  0  0  0  0  0  0
   39.6420  -15.3330   26.8330 N   0  0  0  0  0  0  0  0  0  0  0  0
   37.2650  -17.3800   27.8190 C   0  0  0  0  0  0  0  0  0  0  0  0
   38.3680  -17.6320   28.8050 C   0  0  0  0  0  0  0  0  0  0  0  0
   39.1050  -18.8460   28.4920 N   0  0  0  0  0  0  0  0  0  0  0  0
  2  1  2  0
  3  1  1  0
 15  1  1  0
  4  3  2  0
  8  3  1  0
  5  4  1  0
  6  5  2  0
  7  6  1  0
 13  6  1  0
  8  7  2  0
  9  7  1  0
 10  9  2  0
 14  9  1  0
 11 10  1  0
 12 11  2  0
 13 11  1  0
 16 15  1  0
 17 16  1  0
 19 16  1  0
 18 17  2  0
 40 17  1  0
 20 19  1  0
 21 20  2  0
 22 20  1  0
 23 21  1  0
 24 22  2  0
 25 23  2  0
 25 24  1  0
 27 26  2  0
 31 26  1  0
 28 27  1  0
 29 28  2  0
 32 28  1  0
 30 29  1  0
 31 30  2  0
 38 30  1  0
 33 31  1  0
 34 33  1  0
 37 33  1  0
 35 34  2  0
 36 35  1  0
 37 36  2  0
 39 38  1  0
 40 39  1  0
A    1
C20
A    2
O22
A    3
C21
A    4
C23
A    5
C24
A    6
C27
A    7
C26
A    8
C25
A    9
C31
A   10
C30
A   11
C29
A   12
O32
A   13
N28
A   14
O40
A   15
N19
A   16
C17
A   17
C16
A   18
O39
A   19
C18
A   20
C33
A   21
C34
A   22
C38
A   23
C35
A   24
C37
A   25
C36
A   26
C1
A   27
C2
A   28
C3
A   29
C4
A   30
C5
A   31
C6
A   32
CL7
A   33
N8
A   34
C9
A   35
N10
A   36
N11
A   37
N12
A   38
C13
A   39
C14
A   40
N15
M  END
>  <Id>  (18) 
5E2P_7P0_A_301

>  <ChainId>  (18) 
A

>  <AsymId>  (18) 
B

>  <SeqNum>  (18) 
301

>  <Name>  (18) 
N-[(1S)-1-benzyl-2-[2-[5-chloro-2-(tetrazol-1-yl)phenyl]ethylamino]-2-oxo-ethyl]-4-hydroxy-2-oxo-1H-quinoline-6-carboxamide

>  <SystematicName>  (18) 
N-[(2S)-1-[2-[5-chloranyl-2-(1,2,3,4-tetrazol-1-yl)phenyl]ethylamino]-1-oxidanylidene-3-phenyl-propan-2-yl]-4-oxidanyl-2-oxidanylidene-1H-quinoline-6-carboxamide

>  <Synonyms>  (18) 


>  <Type>  (18) 
non-polymer

>  <Formula>  (18) 
C28 H24 Cl N7 O4

>  <ObservedFormula>  (18) 
C28 Cl N7 O4

>  <MolecularWeight>  (18) 
557.988

>  <ModifiedDate>  (18) 
2015-02-06

>  <Parent>  (18) 


>  <OneLetterCode>  (18) 


>  <SubcomponentList>  (18) 
7DM PHE BXR

>  <AmbiguousFlag>  (18) 
N

>  <InsertionCode>  (18) 


>  <InstanceId>  (18) 
5E2P_7P0_A_301

>  <ChemCompId>  (18) 
7P0

>  <PdbId>  (18) 
5E2P

>  <ResidueNumber>  (18) 
301

>  <InChI>  (18) 
InChI=1S/C28H24ClN7O4/c29-20-7-9-24(36-16-31-34-35-36)18(13-20)10-11-30-28(40)23(12-17-4-2-1-3-5-17)33-27(39)19-6-8-22-21(14-19)25(37)15-26(38)32-22/h1-9,13-16,23H,10-12H2,(H,30,40)(H,33,39)(H2,32,37,38)/t23-/m0/s1

>  <InChIKey>  (18) 
JAUUPTJHJIUVMZ-QHCPKHFHSA-N

>  <SMILES>  (18) 
c1ccc(cc1)C[C@@H](C(=O)NCCc2cc(ccc2n3cnnn3)Cl)NC(=O)c4ccc5c(c4)C(=CC(=O)N5)O

>  <MissingHeavyAtoms>  (18) 
0

>  <Model>  (18) 
1

>  <AltIds>  (18) 


>  <pKI>  (18) 
8.8

>  <ChemblID>  (18) 
CHEMBL3754781

>  <standardized_canonical_smiles>  (18) 
O=C(N[C@@H](Cc1ccccc1)C(=O)NCCc1cc(Cl)ccc1-n1cnnn1)c1ccc2[nH]c(=O)cc(O)c2c1

$$$$
5EXN_5SU_A_302
     RDKit          3D

 42 46  0  0  0  0  0  0  0  0999 V2000
   -3.0100   10.0650  -18.2730 C   0  0  0  0  0  0  0  0  0  0  0  0
   -0.0830    6.2040  -17.5340 C   0  0  0  0  0  0  0  0  0  0  0  0
   -0.6790    7.2120  -18.5010 C   0  0  0  0  0  0  0  0  0  0  0  0
    0.9860    5.3810  -17.9520 C   0  0  0  0  0  0  0  0  0  0  0  0
    1.5470    4.4360  -17.0800 C   0  0  0  0  0  0  0  0  0  0  0  0
    1.0580    4.3190  -15.7670 C   0  0  0  0  0  0  0  0  0  0  0  0
    0.0200    5.1320  -15.3460 C   0  0  0  0  0  0  0  0  0  0  0  0
   -0.5620    6.0500  -16.2220 C   0  0  0  0  0  0  0  0  0  0  0  0
    1.8000   10.8320  -11.2620 C   0  0  0  0  0  0  0  0  0  0  0  0
    2.3790   11.7090  -12.1910 C   0  0  0  0  0  0  0  0  0  0  0  0
   -6.4000   13.1190  -22.9240 C   0  0  0  0  0  0  0  0  0  0  0  0
   -5.0730   13.5220  -22.9290 C   0  0  0  0  0  0  0  0  0  0  0  0
    0.0140    9.3170  -17.3410 C   0  0  0  0  0  0  0  0  0  0  0  0
    0.9040    9.7570  -18.2450 N   0  0  0  0  0  0  0  0  0  0  0  0
    1.9670   10.4310  -17.7770 C   0  0  0  0  0  0  0  0  0  0  0  0
    2.1980   10.6620  -16.4340 C   0  0  0  0  0  0  0  0  0  0  0  0
    1.2630   10.2040  -15.4980 C   0  0  0  0  0  0  0  0  0  0  0  0
    0.1490    9.5260  -15.9970 C   0  0  0  0  0  0  0  0  0  0  0  0
    1.4170   10.4500  -14.0360 C   0  0  0  0  0  0  0  0  0  0  0  0
    2.1690   11.5280  -13.5500 C   0  0  0  0  0  0  0  0  0  0  0  0
    1.0110    9.7790  -11.7320 C   0  0  0  0  0  0  0  0  0  0  0  0
    0.8450    9.5840  -13.0940 C   0  0  0  0  0  0  0  0  0  0  0  0
    1.9630   10.8970   -9.8570 N   0  0  0  0  0  0  0  0  0  0  0  0
   -1.1410    8.5320  -17.8730 C   0  0  0  0  0  0  0  0  0  0  0  0
   -1.9810    9.2900  -18.7990 N   0  0  0  0  0  0  0  0  0  0  0  0
   -3.1470   10.2530  -17.0520 O   0  0  0  0  0  0  0  0  0  0  0  0
    2.7300   11.7840   -9.1700 C   0  0  0  0  0  0  0  0  0  0  0  0
    3.3260   12.7350   -9.6470 O   0  0  0  0  0  0  0  0  0  0  0  0
    2.7090   11.4660   -7.8700 O   0  0  0  0  0  0  0  0  0  0  0  0
    3.3760   12.4250   -6.9630 C   0  0  0  0  0  0  0  0  0  0  0  0
   -3.8570   10.7860  -19.2180 C   0  0  0  0  0  0  0  0  0  0  0  0
   -3.6080   11.0260  -20.4780 C   0  0  0  0  0  0  0  0  0  0  0  0
   -4.5180   11.7580  -21.3550 C   0  0  0  0  0  0  0  0  0  0  0  0
   -4.1220   12.8430  -22.1570 C   0  0  0  0  0  0  0  0  0  0  0  0
   -6.7730   12.0460  -22.1480 C   0  0  0  0  0  0  0  0  0  0  0  0
   -5.8660   11.3690  -21.3640 C   0  0  0  0  0  0  0  0  0  0  0  0
   -2.7420   13.2260  -22.2520 N   0  0  0  0  0  0  0  0  0  0  0  0
   -1.9220   13.3610  -23.2980 C   0  0  0  0  0  0  0  0  0  0  0  0
   -0.7340   13.7120  -22.8870 N   0  0  0  0  0  0  0  0  0  0  0  0
   -0.8270   13.7960  -21.5380 N   0  0  0  0  0  0  0  0  0  0  0  0
   -2.0300   13.5160  -21.1330 N   0  0  0  0  0  0  0  0  0  0  0  0
   -8.4290   11.5180  -22.1790 Cl  0  0  0  0  0  0  0  0  0  0  0  0
 25  1  1  0
 26  1  2  0
 31  1  1  0
  3  2  1  0
  4  2  2  0
  8  2  1  0
 24  3  1  0
  5  4  1  0
  6  5  2  0
  7  6  1  0
  8  7  2  0
 10  9  2  0
 21  9  1  0
 23  9  1  0
 20 10  1  0
 12 11  2  0
 35 11  1  0
 34 12  1  0
 14 13  2  0
 18 13  1  0
 24 13  1  0
 15 14  1  0
 16 15  2  0
 17 16  1  0
 18 17  2  0
 19 17  1  0
 20 19  2  0
 22 19  1  0
 22 21  2  0
 27 23  1  0
 25 24  1  0
 28 27  2  0
 29 27  1  0
 30 29  1  0
 32 31  2  0
 33 32  1  0
 34 33  2  0
 36 33  1  0
 37 34  1  0
 36 35  2  0
 42 35  1  0
 38 37  1  0
 41 37  1  0
 39 38  2  0
 40 39  1  0
 41 40  2  0
A    1
C18
A    2
C16
A    3
C15
A    4
C20
A    5
C21
A    6
C22
A    7
C23
A    8
C24
A    9
C11
A   10
C12
A   11
C34
A   12
C33
A   13
C1
A   14
N2
A   15
C3
A   16
C4
A   17
C5
A   18
C6
A   19
C7
A   20
C8
A   21
C9
A   22
C10
A   23
N13
A   24
C14
A   25
N17
A   26
O19
A   27
C25
A   28
O26
A   29
O27
A   30
C28
A   31
C29
A   32
C30
A   33
C31
A   34
C32
A   35
C35
A   36
C36
A   37
N37
A   38
C38
A   39
N39
A   40
N40
A   41
N41
A   42
CL4
M  END
>  <Id>  (19) 
5EXN_5SU_A_302

>  <ChainId>  (19) 
A

>  <AsymId>  (19) 
C

>  <SeqNum>  (19) 
302

>  <Name>  (19) 
methyl ~{N}-[4-[2-[(1~{S})-1-[[(~{E})-3-[5-chloranyl-2-(1,2,3,4-tetrazol-1-yl)phenyl]prop-2-enoyl]amino]-2-phenyl-ethyl]pyridin-4-yl]phenyl]carbamate

>  <SystematicName>  (19) 
methyl ~{N}-[4-[2-[(1~{S})-1-[[(~{E})-3-[5-chloranyl-2-(1,2,3,4-tetrazol-1-yl)phenyl]prop-2-enoyl]amino]-2-phenyl-ethyl]pyridin-4-yl]phenyl]carbamate

>  <Synonyms>  (19) 


>  <Type>  (19) 
NON-POLYMER

>  <Formula>  (19) 
C31 H26 Cl N7 O3

>  <ObservedFormula>  (19) 
C31 Cl N7 O3

>  <MolecularWeight>  (19) 
580.036

>  <ModifiedDate>  (19) 
2016-04-08

>  <Parent>  (19) 


>  <OneLetterCode>  (19) 


>  <SubcomponentList>  (19) 


>  <AmbiguousFlag>  (19) 
N

>  <InsertionCode>  (19) 


>  <InstanceId>  (19) 
5EXN_5SU_A_302

>  <ChemCompId>  (19) 
5SU

>  <PdbId>  (19) 
5EXN

>  <ResidueNumber>  (19) 
302

>  <InChI>  (19) 
InChI=1S/C31H26ClN7O3/c1-42-31(41)35-26-11-7-22(8-12-26)23-15-16-33-27(19-23)28(17-21-5-3-2-4-6-21)36-30(40)14-9-24-18-25(32)10-13-29(24)39-20-34-37-38-39/h2-16,18-20,28H,17H2,1H3,(H,35,41)(H,36,40)/b14-9+/t28-/m0/s1

>  <InChIKey>  (19) 
ZBUQQUJRHVSUJI-CWBDRXANSA-N

>  <SMILES>  (19) 
COC(=O)Nc1ccc(cc1)c2ccnc(c2)[C@H](Cc3ccccc3)NC(=O)/C=C/c4cc(ccc4n5cnnn5)Cl

>  <MissingHeavyAtoms>  (19) 
0

>  <Model>  (19) 
1

>  <AltIds>  (19) 


>  <pKI>  (19) 
7.64

>  <ChemblID>  (19) 
CHEMBL3781319

>  <standardized_canonical_smiles>  (19) 
COC(=O)Nc1ccc(-c2ccnc([C@H](Cc3ccccc3)NC(=O)/C=C/c3cc(Cl)ccc3-n3cnnn3)c2)cc1

$$$$
5EXM_5ST_A_301
     RDKit          3D

 36 39  0  0  0  0  0  0  0  0999 V2000
   44.6380  -21.1640   30.2690 C   0  0  0  0  0  0  0  0  0  0  0  0
   39.0510  -18.4600   29.0700 C   0  0  0  0  0  0  0  0  0  0  0  0
   41.4110  -20.6050   28.4990 C   0  0  0  0  0  0  0  0  0  0  0  0
   46.5230  -21.9040   32.2480 C   0  0  0  0  0  0  0  0  0  0  0  0
   40.1180  -23.2930   28.6710 C   0  0  0  0  0  0  0  0  0  0  0  0
   48.8450  -22.0190   33.2580 C   0  0  0  0  0  0  0  0  0  0  0  0
   37.1410  -16.9290   29.5200 C   0  0  0  0  0  0  0  0  0  0  0  0
   38.9260  -16.2570   27.7940 C   0  0  0  0  0  0  0  0  0  0  0  0
   36.2450  -15.7760   29.0330 C   0  0  0  0  0  0  0  0  0  0  0  0
   37.9740  -15.1560   27.2820 C   0  0  0  0  0  0  0  0  0  0  0  0
   38.1480  -17.4130   28.4630 C   0  0  0  0  0  0  0  0  0  0  0  0
   42.3100  -20.9100   29.5070 C   0  0  0  0  0  0  0  0  0  0  0  0
   43.1220  -20.3040   26.9590 C   0  0  0  0  0  0  0  0  0  0  0  0
   39.3450  -22.0740   28.1950 C   0  0  0  0  0  0  0  0  0  0  0  0
   41.6480  -25.4550   29.6010 C   0  0  0  0  0  0  0  0  0  0  0  0
   40.7410  -24.8160   30.4550 C   0  0  0  0  0  0  0  0  0  0  0  0
   41.8050  -24.9990   28.2800 C   0  0  0  0  0  0  0  0  0  0  0  0
   44.2650  -22.0180   31.3240 C   0  0  0  0  0  0  0  0  0  0  0  0
   45.9550  -20.6780   30.2060 C   0  0  0  0  0  0  0  0  0  0  0  0
   39.9930  -23.7260   29.9940 C   0  0  0  0  0  0  0  0  0  0  0  0
   41.0440  -23.9120   27.8170 C   0  0  0  0  0  0  0  0  0  0  0  0
   45.1940  -22.3710   32.3210 C   0  0  0  0  0  0  0  0  0  0  0  0
   46.9010  -21.0710   31.1720 C   0  0  0  0  0  0  0  0  0  0  0  0
   44.0960  -20.5660   27.9230 C   0  0  0  0  0  0  0  0  0  0  0  0
   43.6730  -20.8330   29.2320 C   0  0  0  0  0  0  0  0  0  0  0  0
   37.0800  -14.6260   28.4240 C   0  0  0  0  0  0  0  0  0  0  0  0
   50.8240  -22.2880   34.6180 C   0  0  0  0  0  0  0  0  0  0  0  0
   36.1710  -13.4680   27.9760 C   0  0  0  0  0  0  0  0  0  0  0  0
   39.9210  -20.7600   28.7960 C   0  0  0  0  0  0  0  0  0  0  0  0
   41.7890  -20.3210   27.2200 N   0  0  0  0  0  0  0  0  0  0  0  0
   36.9500  -12.3770   27.4660 N   0  0  0  0  0  0  0  0  0  0  0  0
   47.4670  -22.3120   33.2070 N   0  0  0  0  0  0  0  0  0  0  0  0
   39.1250  -19.6340   28.3560 N   0  0  0  0  0  0  0  0  0  0  0  0
   39.6300  -18.2730   30.1390 O   0  0  0  0  0  0  0  0  0  0  0  0
   49.4620  -21.3230   32.4600 O   0  0  0  0  0  0  0  0  0  0  0  0
   49.4380  -22.5810   34.3690 O   0  0  0  0  0  0  0  0  0  0  0  0
 18  1  2  0
 19  1  1  0
 25  1  1  0
 11  2  1  0
 33  2  1  0
 34  2  2  0
 12  3  2  0
 29  3  1  0
 30  3  1  0
 22  4  2  0
 23  4  1  0
 32  4  1  0
 14  5  1  0
 20  5  2  0
 21  5  1  0
 32  6  1  0
 35  6  2  0
 36  6  1  0
  9  7  1  0
 11  7  1  0
 10  8  1  0
 11  8  1  0
 26  9  1  0
 26 10  1  0
 25 12  1  0
 24 13  1  0
 30 13  2  0
 29 14  1  0
 16 15  2  0
 17 15  1  0
 20 16  1  0
 21 17  2  0
 22 18  1  0
 23 19  2  0
 25 24  2  0
 28 26  1  0
 36 27  1  0
 31 28  1  0
 33 29  1  0
A    1
C13
A    2
C18
A    3
C17
A    4
C16
A    5
C15
A    6
C19
A    7
C20
A    8
C21
A    9
C22
A   10
C23
A   11
C24
A   12
C11
A   13
C12
A   14
C27
A   15
C1
A   16
C2
A   17
C3
A   18
C4
A   19
C5
A   20
C6
A   21
C7
A   22
C8
A   23
C9
A   24
C10
A   25
C14
A   26
C25
A   27
C26
A   28
C28
A   29
C29
A   30
N30
A   31
N31
A   32
N32
A   33
N33
A   34
O34
A   35
O35
A   36
O36
M  END
>  <Id>  (20) 
5EXM_5ST_A_301

>  <ChainId>  (20) 
A

>  <AsymId>  (20) 
B

>  <SeqNum>  (20) 
301

>  <Name>  (20) 
methyl ~{N}-[4-[2-[(1~{S})-1-[[4-(aminomethyl)cyclohexyl]carbonylamino]-2-phenyl-ethyl]pyridin-4-yl]phenyl]carbamate

>  <SystematicName>  (20) 
methyl ~{N}-[4-[2-[(1~{S})-1-[[4-(aminomethyl)cyclohexyl]carbonylamino]-2-phenyl-ethyl]pyridin-4-yl]phenyl]carbamate

>  <Synonyms>  (20) 


>  <Type>  (20) 
NON-POLYMER

>  <Formula>  (20) 
C29 H34 N4 O3

>  <ObservedFormula>  (20) 
C29 N4 O3

>  <MolecularWeight>  (20) 
486.605

>  <ModifiedDate>  (20) 
2016-04-08

>  <Parent>  (20) 


>  <OneLetterCode>  (20) 


>  <SubcomponentList>  (20) 


>  <AmbiguousFlag>  (20) 
N

>  <InsertionCode>  (20) 


>  <InstanceId>  (20) 
5EXM_5ST_A_301

>  <ChemCompId>  (20) 
5ST

>  <PdbId>  (20) 
5EXM

>  <ResidueNumber>  (20) 
301

>  <InChI>  (20) 
InChI=1S/C29H34N4O3/c1-36-29(35)32-25-13-11-22(12-14-25)24-15-16-31-26(18-24)27(17-20-5-3-2-4-6-20)33-28(34)23-9-7-21(19-30)8-10-23/h2-6,11-16,18,21,23,27H,7-10,17,19,30H2,1H3,(H,32,35)(H,33,34)/t21-,23-,27-/m0/s1

>  <InChIKey>  (20) 
YAJFVXIHHOXQOV-MYIHVTGJSA-N

>  <SMILES>  (20) 
COC(=O)Nc1ccc(cc1)c2ccnc(c2)[C@H](Cc3ccccc3)NC(=O)C4CCC(CC4)CN

>  <MissingHeavyAtoms>  (20) 
0

>  <Model>  (20) 
1

>  <AltIds>  (20) 


>  <pKI>  (20) 
8.2

>  <ChemblID>  (20) 
CHEMBL3781788

>  <standardized_canonical_smiles>  (20) 
COC(=O)Nc1ccc(-c2ccnc([C@H](Cc3ccccc3)NC(=O)[C@H]3CC[C@H](CN)CC3)c2)cc1

$$$$
5EXL_5SS_A_301
     RDKit          3D

 35 39  0  0  0  0  0  0  0  0999 V2000
   44.3590  -21.1760   30.1780 C   0  0  0  0  0  0  0  0  0  0  0  0
   48.0070  -21.0460   31.2830 C   0  0  0  0  0  0  0  0  0  0  0  0
   41.2160  -20.5930   28.2780 C   0  0  0  0  0  0  0  0  0  0  0  0
   46.1790  -22.0420   32.0920 C   0  0  0  0  0  0  0  0  0  0  0  0
   39.8760  -23.2110   28.4400 C   0  0  0  0  0  0  0  0  0  0  0  0
   38.8540  -18.3630   28.7860 C   0  0  0  0  0  0  0  0  0  0  0  0
   36.9790  -16.8130   29.3060 C   0  0  0  0  0  0  0  0  0  0  0  0
   38.7060  -16.1340   27.5340 C   0  0  0  0  0  0  0  0  0  0  0  0
   36.0560  -15.6870   28.8370 C   0  0  0  0  0  0  0  0  0  0  0  0
   37.7440  -15.0240   27.0770 C   0  0  0  0  0  0  0  0  0  0  0  0
   37.9510  -17.2920   28.2170 C   0  0  0  0  0  0  0  0  0  0  0  0
   43.0110  -20.3320   26.8140 C   0  0  0  0  0  0  0  0  0  0  0  0
   46.6260  -21.2270   31.0380 C   0  0  0  0  0  0  0  0  0  0  0  0
   35.9540  -13.3570   27.8640 C   0  0  0  0  0  0  0  0  0  0  0  0
   41.3420  -25.2990   29.5890 C   0  0  0  0  0  0  0  0  0  0  0  0
   41.5360  -24.9550   28.2430 C   0  0  0  0  0  0  0  0  0  0  0  0
   40.4240  -24.5930   30.3660 C   0  0  0  0  0  0  0  0  0  0  0  0
   43.9390  -22.0280   31.2220 C   0  0  0  0  0  0  0  0  0  0  0  0
   40.8100  -23.9060   27.6650 C   0  0  0  0  0  0  0  0  0  0  0  0
   39.7050  -23.5430   29.7900 C   0  0  0  0  0  0  0  0  0  0  0  0
   44.8400  -22.4760   32.2040 C   0  0  0  0  0  0  0  0  0  0  0  0
   43.9280  -20.5830   27.8280 C   0  0  0  0  0  0  0  0  0  0  0  0
   45.7070  -20.7820   30.0640 C   0  0  0  0  0  0  0  0  0  0  0  0
   42.0550  -20.8950   29.3400 C   0  0  0  0  0  0  0  0  0  0  0  0
   43.4330  -20.8320   29.1170 C   0  0  0  0  0  0  0  0  0  0  0  0
   36.8700  -14.5220   28.2470 C   0  0  0  0  0  0  0  0  0  0  0  0
   39.1510  -22.0050   27.8640 C   0  0  0  0  0  0  0  0  0  0  0  0
   39.7100  -20.6920   28.4830 C   0  0  0  0  0  0  0  0  0  0  0  0
   41.6660  -20.3490   27.0160 N   0  0  0  0  0  0  0  0  0  0  0  0
   48.4130  -21.7110   32.3740 N   0  0  0  0  0  0  0  0  0  0  0  0
   47.2980  -22.3000   32.8490 N   0  0  0  0  0  0  0  0  0  0  0  0
   36.7300  -12.3020   27.2980 N   0  0  0  0  0  0  0  0  0  0  0  0
   38.9370  -19.5360   28.0480 N   0  0  0  0  0  0  0  0  0  0  0  0
   39.4180  -18.1760   29.8570 O   0  0  0  0  0  0  0  0  0  0  0  0
   48.8870  -20.2890   30.5930 O   0  0  0  0  0  0  0  0  0  0  0  0
 18  1  1  0
 23  1  2  0
 25  1  1  0
 13  2  1  0
 30  2  2  0
 35  2  1  0
 24  3  1  0
 28  3  1  0
 29  3  2  0
 13  4  2  0
 21  4  1  0
 31  4  1  0
 19  5  2  0
 20  5  1  0
 27  5  1  0
 11  6  1  0
 33  6  1  0
 34  6  2  0
  9  7  1  0
 11  7  1  0
 10  8  1  0
 11  8  1  0
 26  9  1  0
 26 10  1  0
 22 12  2  0
 29 12  1  0
 23 13  1  0
 26 14  1  0
 32 14  1  0
 16 15  2  0
 17 15  1  0
 19 16  1  0
 20 17  2  0
 21 18  2  0
 25 22  1  0
 25 24  2  0
 28 27  1  0
 33 28  1  0
 31 30  1  0
A    1
C13
A    2
C18
A    3
C17
A    4
C16
A    5
C15
A    6
C19
A    7
C20
A    8
C21
A    9
C22
A   10
C23
A   11
C24
A   12
C11
A   13
C12
A   14
C27
A   15
C1
A   16
C2
A   17
C3
A   18
C4
A   19
C5
A   20
C6
A   21
C7
A   22
C8
A   23
C9
A   24
C10
A   25
C14
A   26
C25
A   27
C26
A   28
C28
A   29
N29
A   30
N30
A   31
N31
A   32
N32
A   33
N33
A   34
O34
A   35
O35
M  END
>  <Id>  (21) 
5EXL_5SS_A_301

>  <ChainId>  (21) 
A

>  <AsymId>  (21) 
B

>  <SeqNum>  (21) 
301

>  <Name>  (21) 
4-(aminomethyl)-~{N}-[(1~{S})-1-[4-(3-oxidanyl-1~{H}-indazol-5-yl)pyridin-2-yl]-2-phenyl-ethyl]cyclohexane-1-carboxamide

>  <SystematicName>  (21) 
4-(aminomethyl)-~{N}-[(1~{S})-1-[4-(3-oxidanyl-1~{H}-indazol-5-yl)pyridin-2-yl]-2-phenyl-ethyl]cyclohexane-1-carboxamide

>  <Synonyms>  (21) 


>  <Type>  (21) 
NON-POLYMER

>  <Formula>  (21) 
C28 H31 N5 O2

>  <ObservedFormula>  (21) 
C28 N5 O2

>  <MolecularWeight>  (21) 
469.578

>  <ModifiedDate>  (21) 
2016-04-08

>  <Parent>  (21) 


>  <OneLetterCode>  (21) 


>  <SubcomponentList>  (21) 


>  <AmbiguousFlag>  (21) 
N

>  <InsertionCode>  (21) 


>  <InstanceId>  (21) 
5EXL_5SS_A_301

>  <ChemCompId>  (21) 
5SS

>  <PdbId>  (21) 
5EXL

>  <ResidueNumber>  (21) 
301

>  <InChI>  (21) 
InChI=1S/C28H31N5O2/c29-17-19-6-8-20(9-7-19)27(34)31-26(14-18-4-2-1-3-5-18)25-16-22(12-13-30-25)21-10-11-24-23(15-21)28(35)33-32-24/h1-5,10-13,15-16,19-20,26H,6-9,14,17,29H2,(H,31,34)(H2,32,33,35)/t19-,20-,26-/m0/s1

>  <InChIKey>  (21) 
OTOUCEKJIQXXLM-DYLHXGEVSA-N

>  <SMILES>  (21) 
c1ccc(cc1)C[C@@H](c2cc(ccn2)c3ccc4c(c3)c(n[nH]4)O)NC(=O)C5CCC(CC5)CN

>  <MissingHeavyAtoms>  (21) 
0

>  <Model>  (21) 
1

>  <AltIds>  (21) 


>  <pKI>  (21) 
8.43

>  <ChemblID>  (21) 
CHEMBL3780324

>  <standardized_canonical_smiles>  (21) 
NC[C@H]1CC[C@H](C(=O)N[C@@H](Cc2ccccc2)c2cc(-c3ccc4[nH][nH]c(=O)c4c3)ccn2)CC1

$$$$
4CR9_OTW_A_1489
     RDKit          3D

 13 14  0  0  0  0  0  0  0  0999 V2000
   49.6750   23.0710   11.9230 C   0  0  0  0  0  0  0  0  0  0  0  0
   49.9300   21.6020   11.8740 C   0  0  0  0  0  0  0  0  0  0  0  0
   48.8390   20.7680   11.8230 C   0  0  0  0  0  0  0  0  0  0  0  0
   49.0270   19.4100   11.7740 C   0  0  0  0  0  0  0  0  0  0  0  0
   50.2450   18.8590   11.7770 N   0  0  0  0  0  0  0  0  0  0  0  0
   51.3080   19.6710   11.8290 C   0  0  0  0  0  0  0  0  0  0  0  0
   51.2010   21.0540   11.8790 C   0  0  0  0  0  0  0  0  0  0  0  0
   52.3300   21.8510   11.9300 C   0  0  0  0  0  0  0  0  0  0  0  0
   53.5870   21.2750   11.9340 C   0  0  0  0  0  0  0  0  0  0  0  0
   53.7030   19.9050   11.8850 C   0  0  0  0  0  0  0  0  0  0  0  0
   52.5750   19.1240   11.8340 C   0  0  0  0  0  0  0  0  0  0  0  0
   54.7520   22.0450   11.9860 N   0  0  0  0  0  0  0  0  0  0  0  0
   47.8810   18.6090   11.7190 N   0  0  0  0  0  0  0  0  0  0  0  0
  2  1  1  0
  3  2  2  0
  7  2  1  0
  4  3  1  0
  5  4  2  0
 13  4  1  0
  6  5  1  0
  7  6  2  0
 11  6  1  0
  8  7  1  0
  9  8  2  0
 10  9  1  0
 12  9  1  0
 11 10  2  0
A    1
C1
A    2
C2
A    3
C3
A    4
C4
A    5
N5
A    6
C6
A    7
C7
A    8
C8
A    9
C9
A   10
C10
A   11
C11
A   12
N12
A   13
N13
M  END
>  <Id>  (22) 
4CR9_OTW_A_1489

>  <ChainId>  (22) 
A

>  <AsymId>  (22) 
B

>  <SeqNum>  (22) 
1489

>  <Name>  (22) 
4-methylquinoline-2,6-diamine

>  <SystematicName>  (22) 
4-methylquinoline-2,6-diamine

>  <Synonyms>  (22) 


>  <Type>  (22) 
non-polymer

>  <Formula>  (22) 
C10 H11 N3

>  <ObservedFormula>  (22) 
C10 N3

>  <MolecularWeight>  (22) 
173.214

>  <ModifiedDate>  (22) 
2015-02-06

>  <Parent>  (22) 


>  <OneLetterCode>  (22) 


>  <SubcomponentList>  (22) 


>  <AmbiguousFlag>  (22) 
N

>  <InsertionCode>  (22) 


>  <InstanceId>  (22) 
4CR9_OTW_A_1489

>  <ChemCompId>  (22) 
OTW

>  <PdbId>  (22) 
4CR9

>  <ResidueNumber>  (22) 
1489

>  <InChI>  (22) 
InChI=1S/C10H11N3/c1-6-4-10(12)13-9-3-2-7(11)5-8(6)9/h2-5H,11H2,1H3,(H2,12,13)

>  <InChIKey>  (22) 
RTLBVOMPQYBAQP-UHFFFAOYSA-N

>  <SMILES>  (22) 
Cc1cc(nc2c1cc(cc2)N)N

>  <MissingHeavyAtoms>  (22) 
0

>  <Model>  (22) 
1

>  <AltIds>  (22) 


>  <pKI>  (22) 
4.1

>  <ChemblID>  (22) 
-

>  <standardized_canonical_smiles>  (22) 
Cc1cc(N)nc2ccc(N)cc12

$$$$
5QCN_BVM_A_301
     RDKit          3D

 51 56  0  0  0  0  0  0  0  0999 V2000
   38.1240  -16.8570   28.2490 C   0  0  0  0  0  0  0  0  0  0  0  0
   39.9800  -21.3980   28.6200 C   0  0  0  0  0  0  0  0  0  0  0  0
   38.9740  -19.1250   28.5930 C   0  0  0  0  0  0  0  0  0  0  0  0
   39.9000  -22.8150   28.0840 C   0  0  0  0  0  0  0  0  0  0  0  0
   39.6060  -22.9510   26.7250 C   0  0  0  0  0  0  0  0  0  0  0  0
   39.2250  -21.7280   25.9220 C   0  0  0  0  0  0  0  0  0  0  0  0
   38.3690  -20.7950   26.7500 C   0  0  0  0  0  0  0  0  0  0  0  0
   40.1080  -23.9480   28.8670 C   0  0  0  0  0  0  0  0  0  0  0  0
   40.0620  -25.2100   28.2980 C   0  0  0  0  0  0  0  0  0  0  0  0
   45.5270  -21.5680   31.0920 C   0  0  0  0  0  0  0  0  0  0  0  0
   41.4560  -20.9880   28.4880 C   0  0  0  0  0  0  0  0  0  0  0  0
   46.3680  -21.0460   30.1080 C   0  0  0  0  0  0  0  0  0  0  0  0
   33.7060  -14.4270   29.2800 Cl  0  0  0  0  0  0  0  0  0  0  0  0
   36.5870  -13.8240   26.5850 C   0  0  0  0  0  0  0  0  0  0  0  0
   35.4260  -13.6880   27.3330 C   0  0  0  0  0  0  0  0  0  0  0  0
   35.1420  -14.6190   28.3100 C   0  0  0  0  0  0  0  0  0  0  0  0
   35.9870  -15.6790   28.5620 C   0  0  0  0  0  0  0  0  0  0  0  0
   37.1870  -15.8000   27.8490 C   0  0  0  0  0  0  0  0  0  0  0  0
   37.4730  -14.8720   26.8300 C   0  0  0  0  0  0  0  0  0  0  0  0
   38.5060  -15.1320   25.8810 N   0  0  0  0  0  0  0  0  0  0  0  0
   38.5780  -14.9550   24.5570 C   0  0  0  0  0  0  0  0  0  0  0  0
   39.7890  -15.2090   24.1440 N   0  0  0  0  0  0  0  0  0  0  0  0
   40.4990  -15.5080   25.2610 N   0  0  0  0  0  0  0  0  0  0  0  0
   39.7460  -15.4670   26.3130 N   0  0  0  0  0  0  0  0  0  0  0  0
   38.0030  -18.1540   28.0300 C   0  0  0  0  0  0  0  0  0  0  0  0
   39.6920  -18.8620   29.5580 O   0  0  0  0  0  0  0  0  0  0  0  0
   39.0790  -20.4050   27.9770 N   0  0  0  0  0  0  0  0  0  0  0  0
   39.8130  -25.3580   26.9400 C   0  0  0  0  0  0  0  0  0  0  0  0
   39.5750  -24.2310   26.1500 C   0  0  0  0  0  0  0  0  0  0  0  0
   41.9040  -20.5570   27.4240 O   0  0  0  0  0  0  0  0  0  0  0  0
   42.1980  -21.2450   29.5870 N   0  0  0  0  0  0  0  0  0  0  0  0
   43.5920  -21.0960   29.7430 C   0  0  0  0  0  0  0  0  0  0  0  0
   44.4210  -20.5420   28.7710 C   0  0  0  0  0  0  0  0  0  0  0  0
   45.7910  -20.5070   28.9610 C   0  0  0  0  0  0  0  0  0  0  0  0
   44.1560  -21.5970   30.9100 C   0  0  0  0  0  0  0  0  0  0  0  0
   47.8530  -20.9690   30.3030 C   0  0  0  0  0  0  0  0  0  0  0  0
   48.3650  -21.6160   31.3190 O   0  0  0  0  0  0  0  0  0  0  0  0
   48.5350  -20.2240   29.6170 O   0  0  0  0  0  0  0  0  0  0  0  0
   39.1980  -24.4050   24.7040 C   0  0  0  0  0  0  0  0  0  0  0  0
   38.0450  -24.6940   24.4350 O   0  0  0  0  0  0  0  0  0  0  0  0
   40.1070  -24.0960   23.7540 N   0  0  0  0  0  0  0  0  0  0  0  0
   39.7610  -24.0180   22.3330 C   0  0  0  0  0  0  0  0  0  0  0  0
   40.1130  -22.6340   21.7770 C   0  0  0  0  0  0  0  0  0  0  0  0
   41.5850  -22.2780   22.0530 C   0  0  0  0  0  0  0  0  0  0  0  0
   41.9800  -22.5010   23.5100 C   0  0  0  0  0  0  0  0  0  0  0  0
   41.5450  -23.8720   23.9860 C   0  0  0  0  0  0  0  0  0  0  0  0
   39.1350  -21.5680   22.2330 C   0  0  0  0  0  0  0  0  0  0  0  0
   39.7690  -20.5120   22.7670 O   0  0  0  0  0  0  0  0  0  0  0  0
   37.9370  -21.6510   22.1360 O   0  0  0  0  0  0  0  0  0  0  0  0
   38.9790  -19.4120   23.3250 C   0  0  0  0  0  0  0  0  0  0  0  0
   39.8760  -18.6010   24.2040 C   0  0  0  0  0  0  0  0  0  0  0  0
 18  1  1  0
 25  1  2  0
  4  2  1  0
 11  2  1  0
 27  2  1  0
 25  3  1  0
 26  3  2  0
 27  3  1  0
  5  4  2  0
  8  4  1  0
  6  5  1  0
 29  5  1  0
  7  6  1  0
 27  7  1  0
  9  8  2  0
 28  9  1  0
 12 10  2  0
 35 10  1  0
 30 11  2  0
 31 11  1  0
 34 12  1  0
 36 12  1  0
 16 13  1  0
 15 14  2  0
 19 14  1  0
 16 15  1  0
 17 16  2  0
 18 17  1  0
 19 18  2  0
 20 19  1  0
 21 20  1  0
 24 20  1  0
 22 21  2  0
 23 22  1  0
 24 23  2  0
 29 28  2  0
 39 29  1  0
 32 31  1  0
 33 32  1  0
 35 32  2  0
 34 33  2  0
 37 36  1  0
 38 36  2  0
 40 39  2  0
 41 39  1  0
 42 41  1  0
 46 41  1  0
 43 42  1  0
 44 43  1  0
 47 43  1  0
 45 44  1  0
 46 45  1  0
 48 47  1  0
 49 47  2  0
 50 48  1  0
 51 50  1  0
A    1
C13
A    2
C18
A    3
C15
A    4
C19
A    5
C20
A    6
C21
A    7
C22
A    8
C23
A    9
C24
A   10
C34
A   11
C27
A   12
C33
A   13
CL1
A   14
C2
A   15
C3
A   16
C4
A   17
C5
A   18
C6
A   19
C7
A   20
N8
A   21
C9
A   22
N10
A   23
N11
A   24
N12
A   25
C14
A   26
O16
A   27
N17
A   28
C25
A   29
C26
A   30
O28
A   31
N29
A   32
C30
A   33
C31
A   34
C32
A   35
C35
A   36
C36
A   37
O37
A   38
O38
A   39
C39
A   40
O40
A   41
N41
A   42
C42
A   43
C43
A   44
C44
A   45
C45
A   46
C46
A   47
C47
A   48
O48
A   49
O49
A   50
C50
A   51
C51
M  END
>  <Id>  (23) 
5QCN_BVM_A_301

>  <ChainId>  (23) 
A

>  <AsymId>  (23) 
B

>  <SeqNum>  (23) 
301

>  <Name>  (23) 
4-[[(1~{S})-2-[(~{E})-3-[5-chloranyl-2-(1,2,3,4-tetrazol-1-yl)phenyl]prop-2-enoyl]-5-[(3~{S})-3-ethoxycarbonylpiperidin-1-yl]carbonyl-3,4-dihydro-1~{H}-isoquinolin-1-yl]carbonylamino]benzoic acid

>  <SystematicName>  (23) 
4-[[(1~{S})-2-[(~{E})-3-[5-chloranyl-2-(1,2,3,4-tetrazol-1-yl)phenyl]prop-2-enoyl]-5-[(3~{S})-3-ethoxycarbonylpiperidin-1-yl]carbonyl-3,4-dihydro-1~{H}-isoquinolin-1-yl]carbonylamino]benzoic acid

>  <Synonyms>  (23) 


>  <Type>  (23) 
NON-POLYMER

>  <Formula>  (23) 
C36 H34 Cl N7 O7

>  <ObservedFormula>  (23) 
C36 Cl N7 O7

>  <MolecularWeight>  (23) 
712.151

>  <ModifiedDate>  (23) 
2017-11-03

>  <Parent>  (23) 


>  <OneLetterCode>  (23) 


>  <SubcomponentList>  (23) 


>  <AmbiguousFlag>  (23) 
N

>  <InsertionCode>  (23) 


>  <InstanceId>  (23) 
5QCN_BVM_A_301

>  <ChemCompId>  (23) 
BVM

>  <PdbId>  (23) 
5QCN

>  <ResidueNumber>  (23) 
301

>  <InChI>  (23) 
InChI=1S/C36H34ClN7O7/c1-2-51-36(50)24-5-4-17-42(20-24)34(47)29-7-3-6-28-27(29)16-18-43(32(28)33(46)39-26-12-8-22(9-13-26)35(48)49)31(45)15-10-23-19-25(37)11-14-30(23)44-21-38-40-41-44/h3,6-15,19,21,24,32H,2,4-5,16-18,20H2,1H3,(H,39,46)(H,48,49)/b15-10+/t24-,32-/m0/s1

>  <InChIKey>  (23) 
ZDVKEWAKPHMOKV-WTBNABMMSA-N

>  <SMILES>  (23) 
CCOC(=O)[C@H]1CCCN(C1)C(=O)c2cccc3c2CCN([C@@H]3C(=O)Nc4ccc(cc4)C(=O)O)C(=O)/C=C/c5cc(ccc5n6cnnn6)Cl

>  <MissingHeavyAtoms>  (23) 
0

>  <Model>  (23) 
1

>  <AltIds>  (23) 


>  <pKI>  (23) 
8.22

>  <ChemblID>  (23) 
-

>  <standardized_canonical_smiles>  (23) 
CCOC(=O)[C@H]1CCCN(C(=O)c2cccc3c2CCN(C(=O)/C=C/c2cc(Cl)ccc2-n2cnnn2)[C@@H]3C(=O)Nc2ccc(C(=O)O)cc2)C1

$$$$
5TKS_7DL_A_301
     RDKit          3D

 42 46  0  0  0  0  0  0  0  0999 V2000
   39.0820  -18.6870   29.4150 C   0  0  0  0  0  0  0  0  0  0  0  0
   38.3140  -17.4580   29.1330 C   0  0  0  0  0  0  0  0  0  0  0  0
   39.8050  -20.8740   28.6870 C   0  0  0  0  0  0  0  0  0  0  0  0
   41.3000  -20.7650   28.6940 C   0  0  0  0  0  0  0  0  0  0  0  0
   39.3770  -21.9620   27.7020 C   0  0  0  0  0  0  0  0  0  0  0  0
   44.4600  -21.3800   30.2410 C   0  0  0  0  0  0  0  0  0  0  0  0
   45.5200  -20.4880   30.4630 C   0  0  0  0  0  0  0  0  0  0  0  0
   46.5580  -20.8230   31.3120 C   0  0  0  0  0  0  0  0  0  0  0  0
   40.0970  -23.8210   29.4000 C   0  0  0  0  0  0  0  0  0  0  0  0
   44.4570  -22.6200   30.9010 C   0  0  0  0  0  0  0  0  0  0  0  0
   40.0190  -23.3610   27.9460 C   0  0  0  0  0  0  0  0  0  0  0  0
   33.8610  -14.1230   29.6210 Cl  0  0  0  0  0  0  0  0  0  0  0  0
   44.6910  -20.4520   26.9650 Cl  0  0  0  0  0  0  0  0  0  0  0  0
   36.7620  -13.5070   26.9600 C   0  0  0  0  0  0  0  0  0  0  0  0
   35.6530  -13.3240   27.7720 C   0  0  0  0  0  0  0  0  0  0  0  0
   35.2820  -14.3310   28.6380 C   0  0  0  0  0  0  0  0  0  0  0  0
   35.9990  -15.5120   28.7260 C   0  0  0  0  0  0  0  0  0  0  0  0
   37.1050  -15.7190   27.8910 C   0  0  0  0  0  0  0  0  0  0  0  0
   37.4640  -14.7100   26.9870 C   0  0  0  0  0  0  0  0  0  0  0  0
   38.5430  -14.9130   26.0780 N   0  0  0  0  0  0  0  0  0  0  0  0
   38.5950  -15.0110   24.7420 C   0  0  0  0  0  0  0  0  0  0  0  0
   39.8340  -15.1800   24.3620 N   0  0  0  0  0  0  0  0  0  0  0  0
   40.5650  -15.2040   25.5030 N   0  0  0  0  0  0  0  0  0  0  0  0
   39.8040  -15.0420   26.5460 N   0  0  0  0  0  0  0  0  0  0  0  0
   37.8590  -16.9770   27.9880 C   0  0  0  0  0  0  0  0  0  0  0  0
   39.7130  -18.8180   30.4450 O   0  0  0  0  0  0  0  0  0  0  0  0
   39.1380  -19.6000   28.4230 N   0  0  0  0  0  0  0  0  0  0  0  0
   46.5230  -22.0220   32.0210 C   0  0  0  0  0  0  0  0  0  0  0  0
   45.4840  -22.9170   31.7900 C   0  0  0  0  0  0  0  0  0  0  0  0
   42.0430  -20.5080   27.5790 N   0  0  0  0  0  0  0  0  0  0  0  0
   43.3660  -20.6460   28.0220 C   0  0  0  0  0  0  0  0  0  0  0  0
   43.3650  -20.9810   29.3270 C   0  0  0  0  0  0  0  0  0  0  0  0
   42.0490  -21.0360   29.7520 N   0  0  0  0  0  0  0  0  0  0  0  0
   43.3660  -23.6690   30.7320 C   0  0  0  0  0  0  0  0  0  0  0  0
   40.8040  -25.1470   29.6330 C   0  0  0  0  0  0  0  0  0  0  0  0
   42.2140  -25.3090   29.0490 C   0  0  0  0  0  0  0  0  0  0  0  0
   43.2400  -24.1790   29.2880 C   0  0  0  0  0  0  0  0  0  0  0  0
   47.5160  -22.4110   32.9590 N   0  0  0  0  0  0  0  0  0  0  0  0
   48.7770  -21.9150   33.0630 C   0  0  0  0  0  0  0  0  0  0  0  0
   49.3660  -22.4080   34.1580 O   0  0  0  0  0  0  0  0  0  0  0  0
   49.3300  -21.1870   32.2680 O   0  0  0  0  0  0  0  0  0  0  0  0
   50.7440  -21.9890   34.3620 C   0  0  0  0  0  0  0  0  0  0  0  0
  2  1  1  0
 26  1  2  0
 27  1  1  0
 25  2  2  0
  4  3  1  0
  5  3  1  0
 27  3  1  0
 30  4  1  0
 33  4  2  0
 11  5  1  0
  7  6  2  0
 10  6  1  0
 32  6  1  0
  8  7  1  0
 28  8  2  0
 11  9  1  0
 35  9  1  0
 29 10  2  0
 34 10  1  0
 16 12  1  0
 31 13  1  0
 15 14  2  0
 19 14  1  0
 16 15  1  0
 17 16  2  0
 18 17  1  0
 19 18  2  0
 25 18  1  0
 20 19  1  0
 21 20  1  0
 24 20  1  0
 22 21  2  0
 23 22  1  0
 24 23  2  0
 29 28  1  0
 38 28  1  0
 31 30  1  0
 32 31  2  0
 33 32  1  0
 37 34  1  0
 36 35  1  0
 37 36  1  0
 39 38  1  0
 40 39  1  0
 41 39  2  0
 42 40  1  0
A    1
C16
A    2
C15
A    3
C19
A    4
C20
A    5
C21
A    6
C22
A    7
C23
A    8
C24
A    9
C34
A   10
C27
A   11
C33
A   12
CL1
A   13
CL2
A   14
C3
A   15
C4
A   16
C5
A   17
C6
A   18
C7
A   19
C8
A   20
N9
A   21
C10
A   22
N11
A   23
N12
A   24
N13
A   25
C14
A   26
O17
A   27
N18
A   28
C25
A   29
C26
A   30
N28
A   31
C29
A   32
C30
A   33
N31
A   34
C32
A   35
C35
A   36
C36
A   37
C37
A   38
N38
A   39
C39
A   40
O40
A   41
O41
A   42
C42
M  END
>  <Id>  (24) 
5TKS_7DL_A_301

>  <ChainId>  (24) 
A

>  <AsymId>  (24) 
B

>  <SeqNum>  (24) 
301

>  <Name>  (24) 
((15S)-18-CHLORO- 15-(((2E)-3-(5-CHLORO-2-(1H-TETRAZOL-1-YL)PHENYL)-2- PROPENOYL)AMINO)-17,19-DIAZATRICYCLO[14.2.1.0~2,7~]NONADECA-1(18),2,4,6,16(19)-PENTAEN-5-YL)CARBAMATE

>  <SystematicName>  (24) 
methyl ~{N}-[(15~{S})-18-chloranyl-15-[[(~{E})-3-[5-chloranyl-2-(1,2,3,4-tetrazol-1-yl)phenyl]prop-2-enoyl]amino]-17,19-diazatricyclo[14.2.1.0^{2,7}]nonadeca-1(18),2,4,6,16(19)-pentaen-5-yl]carbamate

>  <Synonyms>  (24) 
methyl [(5S)-2-chloro-5-({(2E)-3-[5-chloro-2-(1H-tetrazol-1-yl)phenyl]prop-2-enoyl}amino)-5,6,7,8,9,10,11,12-octahydro-3H-1,4-(azeno)-3-benzazacyclotetradecin-14-yl]carbamate

>  <Type>  (24) 
NON-POLYMER

>  <Formula>  (24) 
C29 H30 Cl2 N8 O3

>  <ObservedFormula>  (24) 
C29 Cl2 N8 O3

>  <MolecularWeight>  (24) 
609.506

>  <ModifiedDate>  (24) 
2017-02-24

>  <Parent>  (24) 


>  <OneLetterCode>  (24) 


>  <SubcomponentList>  (24) 


>  <AmbiguousFlag>  (24) 
N

>  <InsertionCode>  (24) 


>  <InstanceId>  (24) 
5TKS_7DL_A_301

>  <ChemCompId>  (24) 
7DL

>  <PdbId>  (24) 
5TKS

>  <ResidueNumber>  (24) 
301

>  <InChI>  (24) 
InChI=1S/C29H30Cl2N8O3/c1-42-29(41)33-21-11-12-22-18(16-21)7-5-3-2-4-6-8-23(28-35-26(22)27(31)36-28)34-25(40)14-9-19-15-20(30)10-13-24(19)39-17-32-37-38-39/h9-17,23H,2-8H2,1H3,(H,33,41)(H,34,40)(H,35,36)/b14-9+/t23-/m0/s1

>  <InChIKey>  (24) 
OFZZWFXXZYRSIS-PZVJUEDKSA-N

>  <SMILES>  (24) 
COC(=O)Nc1ccc-2c(c1)CCCCCCC[C@@H](c3[nH]c(c2n3)Cl)NC(=O)/C=C/c4cc(ccc4n5cnnn5)Cl

>  <MissingHeavyAtoms>  (24) 
0

>  <Model>  (24) 
1

>  <AltIds>  (24) 


>  <pKI>  (24) 
7.17

>  <ChemblID>  (24) 
-

>  <standardized_canonical_smiles>  (24) 
COC(=O)Nc1ccc2c(c1)CCCCCCC[C@H](NC(=O)/C=C/c1cc(Cl)ccc1-n1cnnn1)c1nc-2c(Cl)[nH]1

$$$$
5WB6_9ZM_A_301
     RDKit          3D

 47 52  0  0  0  0  0  0  0  0999 V2000
   39.6660  -15.2840   24.4030 N   0  0  0  0  0  0  0  0  0  0  0  0
   38.4710  -14.9730   24.8270 C   0  0  0  0  0  0  0  0  0  0  0  0
   39.3490  -21.0270   28.2210 C   0  0  0  0  0  0  0  0  0  0  0  0
   38.8740  -21.8740   27.0260 C   0  0  0  0  0  0  0  0  0  0  0  0
   40.8520  -20.9840   28.3050 C   0  0  0  0  0  0  0  0  0  0  0  0
   42.9430  -20.9070   27.6670 C   0  0  0  0  0  0  0  0  0  0  0  0
   42.8980  -21.2110   28.9970 C   0  0  0  0  0  0  0  0  0  0  0  0
   35.8150  -15.5350   28.7660 C   0  0  0  0  0  0  0  0  0  0  0  0
   46.1860  -20.9430   30.7930 C   0  0  0  0  0  0  0  0  0  0  0  0
   33.7990  -14.0150   29.7500 Cl  0  0  0  0  0  0  0  0  0  0  0  0
   38.8150  -19.6670   28.1840 N   0  0  0  0  0  0  0  0  0  0  0  0
   38.8850  -18.8750   29.2740 C   0  0  0  0  0  0  0  0  0  0  0  0
   38.1820  -17.5750   29.1790 C   0  0  0  0  0  0  0  0  0  0  0  0
   37.6330  -17.0650   28.0790 C   0  0  0  0  0  0  0  0  0  0  0  0
   36.9490  -15.7700   27.9720 C   0  0  0  0  0  0  0  0  0  0  0  0
   37.3950  -14.7590   27.1060 C   0  0  0  0  0  0  0  0  0  0  0  0
   36.7310  -13.5320   27.0660 C   0  0  0  0  0  0  0  0  0  0  0  0
   35.6090  -13.3130   27.8570 C   0  0  0  0  0  0  0  0  0  0  0  0
   35.1720  -14.3140   28.7030 C   0  0  0  0  0  0  0  0  0  0  0  0
   38.4440  -15.0060   26.1660 N   0  0  0  0  0  0  0  0  0  0  0  0
   40.4020  -15.5070   25.5220 N   0  0  0  0  0  0  0  0  0  0  0  0
   39.6830  -15.3450   26.5900 N   0  0  0  0  0  0  0  0  0  0  0  0
   39.5480  -19.1940   30.2740 O   0  0  0  0  0  0  0  0  0  0  0  0
   41.6540  -20.7700   27.2420 N   0  0  0  0  0  0  0  0  0  0  0  0
   41.5510  -21.2490   29.3970 N   0  0  0  0  0  0  0  0  0  0  0  0
   43.9750  -21.4890   29.9630 C   0  0  0  0  0  0  0  0  0  0  0  0
   45.1360  -20.7110   29.9200 C   0  0  0  0  0  0  0  0  0  0  0  0
   46.1070  -21.9740   31.7300 C   0  0  0  0  0  0  0  0  0  0  0  0
   44.9670  -22.7720   31.7740 C   0  0  0  0  0  0  0  0  0  0  0  0
   43.8950  -22.5300   30.9200 C   0  0  0  0  0  0  0  0  0  0  0  0
   47.1100  -22.2770   32.6930 N   0  0  0  0  0  0  0  0  0  0  0  0
   48.4300  -21.9750   32.6280 C   0  0  0  0  0  0  0  0  0  0  0  0
   48.9640  -21.3040   31.7700 O   0  0  0  0  0  0  0  0  0  0  0  0
   49.0540  -22.4630   33.7130 O   0  0  0  0  0  0  0  0  0  0  0  0
   50.4870  -22.2430   33.7820 C   0  0  0  0  0  0  0  0  0  0  0  0
   39.3620  -23.2960   26.9550 C   0  0  0  0  0  0  0  0  0  0  0  0
   39.6840  -23.9160   28.1120 N   0  0  0  0  0  0  0  0  0  0  0  0
   40.1570  -25.1740   28.0630 C   0  0  0  0  0  0  0  0  0  0  0  0
   40.3060  -25.8470   26.8490 C   0  0  0  0  0  0  0  0  0  0  0  0
   39.9490  -25.2230   25.6760 C   0  0  0  0  0  0  0  0  0  0  0  0
   39.4790  -23.9210   25.7210 C   0  0  0  0  0  0  0  0  0  0  0  0
   40.5320  -25.8300   29.3650 C   0  0  0  0  0  0  0  0  0  0  0  0
   40.9450  -24.8290   30.4440 C   0  0  0  0  0  0  0  0  0  0  0  0
   42.2760  -24.1910   30.1140 C   0  0  0  0  0  0  0  0  0  0  0  0
   42.7210  -23.3120   31.0310 N   0  0  0  0  0  0  0  0  0  0  0  0
   42.8790  -24.4440   29.0750 O   0  0  0  0  0  0  0  0  0  0  0  0
   40.8520  -27.0850   26.8010 F   0  0  0  0  0  0  0  0  0  0  0  0
  2  1  2  0
 21  1  1  0
 20  2  1  0
  4  3  1  0
  5  3  1  0
 11  3  1  0
 36  4  1  0
 24  5  1  0
 25  5  2  0
  7  6  2  0
 24  6  1  0
 25  7  1  0
 26  7  1  0
 15  8  2  0
 19  8  1  0
 27  9  2  0
 28  9  1  0
 19 10  1  0
 12 11  1  0
 13 12  1  0
 23 12  2  0
 14 13  2  0
 15 14  1  0
 16 15  1  0
 17 16  2  0
 20 16  1  0
 18 17  1  0
 19 18  2  0
 22 20  1  0
 22 21  2  0
 27 26  1  0
 30 26  2  0
 29 28  2  0
 31 28  1  0
 30 29  1  0
 45 30  1  0
 32 31  1  0
 33 32  2  0
 34 32  1  0
 35 34  1  0
 37 36  2  0
 41 36  1  0
 38 37  1  0
 39 38  2  0
 42 38  1  0
 40 39  1  0
 47 39  1  0
 41 40  2  0
 43 42  1  0
 44 43  1  0
 45 44  1  0
 46 44  2  0
A    1
N14
A    2
C13
A    3
C18
A    4
C19
A    5
C20
A    6
C22
A    7
C23
A    8
C11
A    9
C27
A   10
CL1
A   11
N2
A   12
C3
A   13
C4
A   14
C5
A   15
C6
A   16
C7
A   17
C8
A   18
C9
A   19
C10
A   20
N12
A   21
N15
A   22
N16
A   23
O17
A   24
N21
A   25
N24
A   26
C25
A   27
C26
A   28
C28
A   29
C29
A   30
C30
A   31
N31
A   32
C32
A   33
O33
A   34
O34
A   35
C35
A   36
C36
A   37
N37
A   38
C38
A   39
C39
A   40
C40
A   41
C41
A   42
C42
A   43
C43
A   44
C44
A   45
N45
A   46
O46
A   47
F47
M  END
>  <Id>  (25) 
5WB6_9ZM_A_301

>  <ChainId>  (25) 
A

>  <AsymId>  (25) 
B

>  <SeqNum>  (25) 
301

>  <Name>  (25) 
methyl [(11S)-11-({(2E)-3-[5-chloro-2-(1H-tetrazol-1-yl)phenyl]prop-2-enoyl}amino)-6-fluoro-2-oxo-1,3,4,10,11,13-hexahydro-2H-5,9:15,12-di(azeno)-1,13-benzodiazacycloheptadecin-18-yl]carbamate

>  <SystematicName>  (25) 
null

>  <Synonyms>  (25) 


>  <Type>  (25) 
NON-POLYMER

>  <Formula>  (25) 
C31 H26 Cl F N10 O4

>  <ObservedFormula>  (25) 
C31 F Cl N10 O4

>  <MolecularWeight>  (25) 
657.054

>  <ModifiedDate>  (25) 
2017-07-28

>  <Parent>  (25) 


>  <OneLetterCode>  (25) 


>  <SubcomponentList>  (25) 


>  <AmbiguousFlag>  (25) 
N

>  <InsertionCode>  (25) 


>  <InstanceId>  (25) 
5WB6_9ZM_A_301

>  <ChemCompId>  (25) 
9ZM

>  <PdbId>  (25) 
5WB6

>  <ResidueNumber>  (25) 
301

>  <InChI>  (25) 
InChI=1S/C31H26ClFN10O4/c1-47-31(46)37-20-4-6-21-24(13-20)38-29(45)11-8-23-22(33)7-5-19(36-23)14-25(30-34-15-26(21)40-30)39-28(44)10-2-17-12-18(32)3-9-27(17)43-16-35-41-42-43/h2-7,9-10,12-13,15-16,25H,8,11,14H2,1H3,(H,34,40)(H,37,46)(H,38,45)(H,39,44)/b10-2+/t25-/m0/s1

>  <InChIKey>  (25) 
RMPNNJSYICOFTF-PRQZJMEUSA-N

>  <SMILES>  (25) 
COC(=O)Nc1ccc-2c(c1)NC(=O)CCc3c(ccc(n3)C[C@@H](c4[nH]cc2n4)NC(=O)/C=C/c5cc(ccc5n6cnnn6)Cl)F

>  <MissingHeavyAtoms>  (25) 
0

>  <Model>  (25) 
1

>  <AltIds>  (25) 


>  <pKI>  (25) 
10.7

>  <ChemblID>  (25) 
-

>  <standardized_canonical_smiles>  (25) 
COC(=O)Nc1ccc2c(c1)NC(=O)CCc1nc(ccc1F)C[C@H](NC(=O)/C=C/c1cc(Cl)ccc1-n1cnnn1)c1nc-2c[nH]1

$$$$
5Q0H_9F1_A_301
     RDKit          3D

 39 42  0  0  0  0  0  0  0  0999 V2000
   41.8810  -20.7550   29.7330 N   0  0  0  0  0  0  0  0  0  0  0  0
   43.2140  -20.7030   29.3620 C   0  0  0  0  0  0  0  0  0  0  0  0
   41.7630  -24.9090   30.0040 C   0  0  0  0  0  0  0  0  0  0  0  0
   40.8440  -24.8980   28.7630 C   0  0  0  0  0  0  0  0  0  0  0  0
   39.9730  -22.8620   27.5780 C   0  0  0  0  0  0  0  0  0  0  0  0
   42.9090  -23.9300   29.8900 C   0  0  0  0  0  0  0  0  0  0  0  0
   48.5960  -21.7020   33.1850 C   0  0  0  0  0  0  0  0  0  0  0  0
   50.5800  -22.0190   34.4490 C   0  0  0  0  0  0  0  0  0  0  0  0
   43.3070  -20.3320   28.0520 C   0  0  0  0  0  0  0  0  0  0  0  0
   40.0880  -23.6080   28.6610 C   0  0  0  0  0  0  0  0  0  0  0  0
   37.0450  -16.6830   29.1260 C   0  0  0  0  0  0  0  0  0  0  0  0
   44.6740  -20.1100   27.0460 Cl  0  0  0  0  0  0  0  0  0  0  0  0
   39.7020  -20.5180   28.5350 C   0  0  0  0  0  0  0  0  0  0  0  0
   41.2020  -20.4440   28.6450 C   0  0  0  0  0  0  0  0  0  0  0  0
   39.2310  -21.5560   27.5060 C   0  0  0  0  0  0  0  0  0  0  0  0
   44.2800  -21.0910   30.3190 C   0  0  0  0  0  0  0  0  0  0  0  0
   45.4100  -20.2770   30.4430 C   0  0  0  0  0  0  0  0  0  0  0  0
   46.4120  -20.5750   31.3540 C   0  0  0  0  0  0  0  0  0  0  0  0
   46.3090  -21.7020   32.1690 C   0  0  0  0  0  0  0  0  0  0  0  0
   45.1880  -22.5230   32.0540 C   0  0  0  0  0  0  0  0  0  0  0  0
   44.1800  -22.2430   31.1340 C   0  0  0  0  0  0  0  0  0  0  0  0
   42.0050  -20.1580   27.5910 N   0  0  0  0  0  0  0  0  0  0  0  0
   43.0920  -23.1400   30.9680 N   0  0  0  0  0  0  0  0  0  0  0  0
   47.3190  -22.1540   33.0680 N   0  0  0  0  0  0  0  0  0  0  0  0
   49.1520  -22.2110   34.3010 O   0  0  0  0  0  0  0  0  0  0  0  0
   49.1670  -20.9630   32.4140 O   0  0  0  0  0  0  0  0  0  0  0  0
   43.6120  -23.8770   28.8780 O   0  0  0  0  0  0  0  0  0  0  0  0
   39.9030  -26.0980   28.7950 C   0  0  0  0  0  0  0  0  0  0  0  0
   36.3430  -15.5660   28.7400 C   0  0  0  0  0  0  0  0  0  0  0  0
   36.9140  -14.6730   27.8350 C   0  0  0  0  0  0  0  0  0  0  0  0
   38.1880  -14.9480   27.3490 C   0  0  0  0  0  0  0  0  0  0  0  0
   38.8460  -16.0780   27.7720 C   0  0  0  0  0  0  0  0  0  0  0  0
   38.3230  -16.9830   28.6830 C   0  0  0  0  0  0  0  0  0  0  0  0
   36.4470  -17.5640   29.9530 F   0  0  0  0  0  0  0  0  0  0  0  0
   39.0640  -18.2160   29.1330 C   0  0  0  0  0  0  0  0  0  0  0  0
   40.0540  -16.3540   27.2340 F   0  0  0  0  0  0  0  0  0  0  0  0
   39.1460  -19.2090   28.2290 N   0  0  0  0  0  0  0  0  0  0  0  0
   39.5260  -18.2980   30.2670 O   0  0  0  0  0  0  0  0  0  0  0  0
   36.1550  -13.4600   27.3640 C   0  0  0  0  0  0  0  0  0  0  0  0
  2  1  1  0
 14  1  2  0
  9  2  2  0
 16  2  1  0
  4  3  1  0
  6  3  1  0
 10  4  1  0
 28  4  1  0
 10  5  2  0
 15  5  1  0
 23  6  1  0
 27  6  2  0
 24  7  1  0
 25  7  1  0
 26  7  2  0
 25  8  1  0
 12  9  1  0
 22  9  1  0
 29 11  2  0
 33 11  1  0
 34 11  1  0
 14 13  1  0
 15 13  1  0
 37 13  1  0
 22 14  1  0
 17 16  2  0
 21 16  1  0
 18 17  1  0
 19 18  2  0
 20 19  1  0
 24 19  1  0
 21 20  2  0
 23 21  1  0
 30 29  1  0
 31 30  2  0
 39 30  1  0
 32 31  1  0
 33 32  2  0
 36 32  1  0
 35 33  1  0
 37 35  1  0
 38 35  2  0
A    1
N14
A    2
C13
A    3
C18
A    4
C17
A    5
C16
A    6
C19
A    7
C21
A    8
C24
A    9
C12
A   10
C27
A   11
C33
A   12
CL1
A   13
C2
A   14
C3
A   15
C4
A   16
C5
A   17
C6
A   18
C7
A   19
C8
A   20
C9
A   21
C10
A   22
N11
A   23
N15
A   24
N20
A   25
O22
A   26
O23
A   27
O25
A   28
C26
A   29
C28
A   30
C29
A   31
C30
A   32
C31
A   33
C32
A   34
F34
A   35
C35
A   36
F36
A   37
N37
A   38
O38
A   39
C39
M  END
>  <Id>  (26) 
5Q0H_9F1_A_301

>  <ChainId>  (26) 
A

>  <AsymId>  (26) 
B

>  <SeqNum>  (26) 
301

>  <Name>  (26) 
methyl [(4R,5E,8S)-11-chloro-8-[(2,6-difluoro-4-methylbenzene-1-carbonyl)amino]-4-methyl-2-oxo-1,3,4,7,8,10-hexahydro-2H-12,9-(azeno)-1,10-benzodiazacyclotetradecin-15-yl]carbamate

>  <SystematicName>  (26) 
methyl ~{N}-[(11~{R},12~{E},15~{S})-15-[[2,6-bis(fluoranyl)-4-methyl-phenyl]carbonylamino]-18-chloranyl-11-methyl-9-oxidanylidene-8,17,19-triazatricyclo[14.2.1.0^{2,7}]nonadeca-1(18),2,4,6,12,16(19)-hexaen-5-yl]carbamate

>  <Synonyms>  (26) 


>  <Type>  (26) 
NON-POLYMER

>  <Formula>  (26) 
C27 H26 Cl F2 N5 O4

>  <ObservedFormula>  (26) 
C27 F2 Cl N5 O4

>  <MolecularWeight>  (26) 
557.976

>  <ModifiedDate>  (26) 
2017-07-07

>  <Parent>  (26) 


>  <OneLetterCode>  (26) 


>  <SubcomponentList>  (26) 


>  <AmbiguousFlag>  (26) 
N

>  <InsertionCode>  (26) 


>  <InstanceId>  (26) 
5Q0H_9F1_A_301

>  <ChemCompId>  (26) 
9F1

>  <PdbId>  (26) 
5Q0H

>  <ResidueNumber>  (26) 
301

>  <InChI>  (26) 
InChI=1S/C27H26ClF2N5O4/c1-13-5-4-6-19(33-26(37)22-17(29)9-14(2)10-18(22)30)25-34-23(24(28)35-25)16-8-7-15(31-27(38)39-3)12-20(16)32-21(36)11-13/h4-5,7-10,12-13,19H,6,11H2,1-3H3,(H,31,38)(H,32,36)(H,33,37)(H,34,35)/b5-4+/t13-,19-/m0/s1

>  <InChIKey>  (26) 
UUVQJAVRCULCGQ-WTAWDTCZSA-N

>  <SMILES>  (26) 
Cc1cc(c(c(c1)F)C(=O)N[C@H]2C/C=C/[C@@H](CC(=O)Nc3cc(ccc3-c4c([nH]c2n4)Cl)NC(=O)OC)C)F

>  <MissingHeavyAtoms>  (26) 
0

>  <Model>  (26) 
1

>  <AltIds>  (26) 


>  <pKI>  (26) 
7.92

>  <ChemblID>  (26) 
-

>  <standardized_canonical_smiles>  (26) 
COC(=O)Nc1ccc2c(c1)NC(=O)C[C@@H](C)/C=C/C[C@H](NC(=O)c1c(F)cc(C)cc1F)c1nc-2c(Cl)[nH]1

$$$$
5Q0F_9FA_A_301
     RDKit          3D

 43 47  0  0  0  0  0  0  0  0999 V2000
   37.7560  -16.9930   28.0380 C   0  0  0  0  0  0  0  0  0  0  0  0
   41.1880  -20.7750   28.6380 C   0  0  0  0  0  0  0  0  0  0  0  0
   39.6910  -20.8870   28.5600 C   0  0  0  0  0  0  0  0  0  0  0  0
   39.0370  -18.6870   29.4250 C   0  0  0  0  0  0  0  0  0  0  0  0
   39.2830  -21.9100   27.4870 C   0  0  0  0  0  0  0  0  0  0  0  0
   44.2990  -21.2340   30.2640 C   0  0  0  0  0  0  0  0  0  0  0  0
   45.4110  -20.3910   30.3710 C   0  0  0  0  0  0  0  0  0  0  0  0
   46.4360  -20.6730   31.2580 C   0  0  0  0  0  0  0  0  0  0  0  0
   46.3530  -21.7850   32.0960 C   0  0  0  0  0  0  0  0  0  0  0  0
   45.2590  -22.6420   31.9890 C   0  0  0  0  0  0  0  0  0  0  0  0
   41.9820  -25.1810   29.9670 C   0  0  0  0  0  0  0  0  0  0  0  0
   43.2660  -20.5190   28.0020 C   0  0  0  0  0  0  0  0  0  0  0  0
   41.0300  -25.2180   28.7540 C   0  0  0  0  0  0  0  0  0  0  0  0
   33.8070  -14.0650   29.6160 Cl  0  0  0  0  0  0  0  0  0  0  0  0
   36.7460  -13.4950   26.9670 C   0  0  0  0  0  0  0  0  0  0  0  0
   35.6290  -13.2990   27.7680 C   0  0  0  0  0  0  0  0  0  0  0  0
   35.2200  -14.3080   28.6180 C   0  0  0  0  0  0  0  0  0  0  0  0
   35.8930  -15.5130   28.6840 C   0  0  0  0  0  0  0  0  0  0  0  0
   37.0180  -15.7290   27.8690 C   0  0  0  0  0  0  0  0  0  0  0  0
   37.4330  -14.7060   26.9970 C   0  0  0  0  0  0  0  0  0  0  0  0
   38.5230  -14.9030   26.0940 N   0  0  0  0  0  0  0  0  0  0  0  0
   38.5900  -14.9040   24.7580 C   0  0  0  0  0  0  0  0  0  0  0  0
   39.7910  -15.2420   24.3770 N   0  0  0  0  0  0  0  0  0  0  0  0
   40.4940  -15.4350   25.5200 N   0  0  0  0  0  0  0  0  0  0  0  0
   39.7470  -15.2410   26.5630 N   0  0  0  0  0  0  0  0  0  0  0  0
   38.2980  -17.4260   29.1820 C   0  0  0  0  0  0  0  0  0  0  0  0
   39.6560  -18.8900   30.4770 O   0  0  0  0  0  0  0  0  0  0  0  0
   44.2420  -22.3890   31.0760 C   0  0  0  0  0  0  0  0  0  0  0  0
   41.9710  -20.4520   27.5860 N   0  0  0  0  0  0  0  0  0  0  0  0
   43.2290  -20.8890   29.3150 C   0  0  0  0  0  0  0  0  0  0  0  0
   41.9040  -21.0380   29.7110 N   0  0  0  0  0  0  0  0  0  0  0  0
   43.1770  -23.3120   30.9270 N   0  0  0  0  0  0  0  0  0  0  0  0
   40.0590  -23.2120   27.5730 C   0  0  0  0  0  0  0  0  0  0  0  0
   40.2070  -23.9600   28.6590 C   0  0  0  0  0  0  0  0  0  0  0  0
   43.0370  -24.1000   29.8430 C   0  0  0  0  0  0  0  0  0  0  0  0
   47.3570  -22.1820   33.0190 N   0  0  0  0  0  0  0  0  0  0  0  0
   48.6390  -21.7280   33.0980 C   0  0  0  0  0  0  0  0  0  0  0  0
   49.2240  -22.2140   34.2140 O   0  0  0  0  0  0  0  0  0  0  0  0
   49.1980  -21.0190   32.2870 O   0  0  0  0  0  0  0  0  0  0  0  0
   50.6670  -22.0470   34.3160 C   0  0  0  0  0  0  0  0  0  0  0  0
   43.7070  -23.9650   28.8190 O   0  0  0  0  0  0  0  0  0  0  0  0
   40.1850  -26.4930   28.7870 C   0  0  0  0  0  0  0  0  0  0  0  0
   39.0360  -19.5820   28.4130 N   0  0  0  0  0  0  0  0  0  0  0  0
 19  1  1  0
 26  1  2  0
  3  2  1  0
 29  2  1  0
 31  2  2  0
  5  3  1  0
 43  3  1  0
 26  4  1  0
 27  4  2  0
 43  4  1  0
 33  5  1  0
  7  6  2  0
 28  6  1  0
 30  6  1  0
  8  7  1  0
  9  8  2  0
 10  9  1  0
 36  9  1  0
 28 10  2  0
 13 11  1  0
 35 11  1  0
 29 12  1  0
 30 12  2  0
 34 13  1  0
 42 13  1  0
 17 14  1  0
 16 15  2  0
 20 15  1  0
 17 16  1  0
 18 17  2  0
 19 18  1  0
 20 19  2  0
 21 20  1  0
 22 21  1  0
 25 21  1  0
 23 22  2  0
 24 23  1  0
 25 24  2  0
 32 28  1  0
 31 30  1  0
 35 32  1  0
 34 33  2  0
 41 35  2  0
 37 36  1  0
 38 37  1  0
 39 37  2  0
 40 38  1  0
A    1
C13
A    2
C18
A    3
C17
A    4
C15
A    5
C19
A    6
C20
A    7
C21
A    8
C22
A    9
C23
A   10
C24
A   11
C34
A   12
C27
A   13
C33
A   14
CL1
A   15
C2
A   16
C3
A   17
C4
A   18
C5
A   19
C6
A   20
C7
A   21
N8
A   22
C9
A   23
N10
A   24
N11
A   25
N12
A   26
C14
A   27
O16
A   28
C25
A   29
N26
A   30
C28
A   31
N29
A   32
N30
A   33
C31
A   34
C32
A   35
C35
A   36
N36
A   37
C37
A   38
O38
A   39
O39
A   40
C40
A   41
O41
A   42
C42
A   43
N43
M  END
>  <Id>  (27) 
5Q0F_9FA_A_301

>  <ChainId>  (27) 
A

>  <AsymId>  (27) 
C

>  <SeqNum>  (27) 
301

>  <Name>  (27) 
methyl [(4R,5E,8S)-8-({(2E)-3-[5-chloro-2-(1H-tetrazol-1-yl)phenyl]prop-2-enoyl}amino)-4-methyl-2-oxo-1,3,4,7,8,10-hexahydro-2H-12,9-(azeno)-1,10-benzodiazacyclotetradecin-15-yl]carbamate

>  <SystematicName>  (27) 
methyl ~{N}-[(11~{R},12~{E},15~{S})-15-[[(~{E})-3-[5-chloranyl-2-(1,2,3,4-tetrazol-1-yl)phenyl]prop-2-enoyl]amino]-11-methyl-9-oxidanylidene-8,17,19-triazatricyclo[14.2.1.0^{2,7}]nonadeca-1(18),2,4,6,12,16(19)-hexaen-5-yl]carbamate

>  <Synonyms>  (27) 


>  <Type>  (27) 
NON-POLYMER

>  <Formula>  (27) 
C29 H28 Cl N9 O4

>  <ObservedFormula>  (27) 
C29 Cl N9 O4

>  <MolecularWeight>  (27) 
602.044

>  <ModifiedDate>  (27) 
2017-07-07

>  <Parent>  (27) 


>  <OneLetterCode>  (27) 


>  <SubcomponentList>  (27) 


>  <AmbiguousFlag>  (27) 
N

>  <InsertionCode>  (27) 


>  <InstanceId>  (27) 
5Q0F_9FA_A_301

>  <ChemCompId>  (27) 
9FA

>  <PdbId>  (27) 
5Q0F

>  <ResidueNumber>  (27) 
301

>  <InChI>  (27) 
InChI=1S/C29H28ClN9O4/c1-17-4-3-5-22(34-26(40)11-6-18-13-19(30)7-10-25(18)39-16-32-37-38-39)28-31-15-24(36-28)21-9-8-20(33-29(42)43-2)14-23(21)35-27(41)12-17/h3-4,6-11,13-17,22H,5,12H2,1-2H3,(H,31,36)(H,33,42)(H,34,40)(H,35,41)/b4-3+,11-6+/t17-,22-/m0/s1

>  <InChIKey>  (27) 
APJDXGPCNQYTQN-KZFYFAAKSA-N

>  <SMILES>  (27) 
C[C@@H]\1CC(=O)Nc2cc(ccc2-c3c[nH]c(n3)[C@H](C/C=C1)NC(=O)/C=C/c4cc(ccc4n5cnnn5)Cl)NC(=O)OC

>  <MissingHeavyAtoms>  (27) 
0

>  <Model>  (27) 
1

>  <AltIds>  (27) 


>  <pKI>  (27) 
9.89

>  <ChemblID>  (27) 
-

>  <standardized_canonical_smiles>  (27) 
COC(=O)Nc1ccc2c(c1)NC(=O)C[C@@H](C)/C=C/C[C@H](NC(=O)/C=C/c1cc(Cl)ccc1-n1cnnn1)c1nc-2c[nH]1

$$$$
5Q0E_9FD_A_301
     RDKit          3D

 43 47  0  0  0  0  0  0  0  0999 V2000
   37.7920  -17.1240   28.1300 C   0  0  0  0  0  0  0  0  0  0  0  0
   39.8750  -20.9410   28.6050 C   0  0  0  0  0  0  0  0  0  0  0  0
   39.2370  -18.7560   29.4390 C   0  0  0  0  0  0  0  0  0  0  0  0
   41.3710  -20.8720   28.6730 C   0  0  0  0  0  0  0  0  0  0  0  0
   39.4240  -21.9370   27.5270 C   0  0  0  0  0  0  0  0  0  0  0  0
   44.4630  -21.3560   30.3330 C   0  0  0  0  0  0  0  0  0  0  0  0
   45.5890  -20.5330   30.4100 C   0  0  0  0  0  0  0  0  0  0  0  0
   46.6250  -20.8220   31.2830 C   0  0  0  0  0  0  0  0  0  0  0  0
   46.5530  -21.9380   32.1180 C   0  0  0  0  0  0  0  0  0  0  0  0
   41.1480  -25.2740   28.9060 C   0  0  0  0  0  0  0  0  0  0  0  0
   40.1780  -24.0710   28.9250 C   0  0  0  0  0  0  0  0  0  0  0  0
   33.8130  -14.1530   29.6160 Cl  0  0  0  0  0  0  0  0  0  0  0  0
   36.9040  -13.5760   27.1230 C   0  0  0  0  0  0  0  0  0  0  0  0
   35.7630  -13.3690   27.8930 C   0  0  0  0  0  0  0  0  0  0  0  0
   35.2760  -14.4020   28.6750 C   0  0  0  0  0  0  0  0  0  0  0  0
   35.9120  -15.6330   28.7250 C   0  0  0  0  0  0  0  0  0  0  0  0
   37.0690  -15.8530   27.9590 C   0  0  0  0  0  0  0  0  0  0  0  0
   37.5330  -14.8250   27.1190 C   0  0  0  0  0  0  0  0  0  0  0  0
   38.5830  -15.0710   26.1770 N   0  0  0  0  0  0  0  0  0  0  0  0
   38.6070  -15.0540   24.8390 C   0  0  0  0  0  0  0  0  0  0  0  0
   39.8000  -15.3740   24.4160 N   0  0  0  0  0  0  0  0  0  0  0  0
   40.5370  -15.5990   25.5360 N   0  0  0  0  0  0  0  0  0  0  0  0
   39.8190  -15.4250   26.6040 N   0  0  0  0  0  0  0  0  0  0  0  0
   38.4450  -17.5200   29.2230 C   0  0  0  0  0  0  0  0  0  0  0  0
   39.8000  -19.0010   30.5030 O   0  0  0  0  0  0  0  0  0  0  0  0
   39.2710  -19.6310   28.4150 N   0  0  0  0  0  0  0  0  0  0  0  0
   45.4290  -22.7580   32.0570 C   0  0  0  0  0  0  0  0  0  0  0  0
   44.3920  -22.4890   31.1720 C   0  0  0  0  0  0  0  0  0  0  0  0
   42.1620  -20.6150   27.6080 N   0  0  0  0  0  0  0  0  0  0  0  0
   43.4600  -20.7180   28.0250 C   0  0  0  0  0  0  0  0  0  0  0  0
   43.4110  -21.0430   29.3510 C   0  0  0  0  0  0  0  0  0  0  0  0
   42.0820  -21.1350   29.7510 N   0  0  0  0  0  0  0  0  0  0  0  0
   43.3350  -23.4170   31.0140 N   0  0  0  0  0  0  0  0  0  0  0  0
   40.0670  -23.3450   27.5610 C   0  0  0  0  0  0  0  0  0  0  0  0
   42.1140  -25.2930   30.0960 C   0  0  0  0  0  0  0  0  0  0  0  0
   43.2220  -24.2710   29.9710 C   0  0  0  0  0  0  0  0  0  0  0  0
   47.5900  -22.3650   32.9980 N   0  0  0  0  0  0  0  0  0  0  0  0
   48.8600  -21.8780   33.0800 C   0  0  0  0  0  0  0  0  0  0  0  0
   49.4620  -22.3640   34.1840 O   0  0  0  0  0  0  0  0  0  0  0  0
   49.3880  -21.1190   32.2930 O   0  0  0  0  0  0  0  0  0  0  0  0
   50.8450  -21.9730   34.3930 C   0  0  0  0  0  0  0  0  0  0  0  0
   43.9630  -24.2450   28.9890 O   0  0  0  0  0  0  0  0  0  0  0  0
   40.4150  -26.6100   28.8200 C   0  0  0  0  0  0  0  0  0  0  0  0
 17  1  1  0
 24  1  2  0
  4  2  1  0
  5  2  1  0
 26  2  1  0
 24  3  1  0
 25  3  2  0
 26  3  1  0
 29  4  1  0
 32  4  2  0
 34  5  1  0
  7  6  2  0
 28  6  1  0
 31  6  1  0
  8  7  1  0
  9  8  2  0
 27  9  1  0
 37  9  1  0
 11 10  1  0
 35 10  1  0
 43 10  1  0
 34 11  1  0
 15 12  1  0
 14 13  2  0
 18 13  1  0
 15 14  1  0
 16 15  2  0
 17 16  1  0
 18 17  2  0
 19 18  1  0
 20 19  1  0
 23 19  1  0
 21 20  2  0
 22 21  1  0
 23 22  2  0
 28 27  2  0
 33 28  1  0
 30 29  1  0
 31 30  2  0
 32 31  1  0
 36 33  1  0
 36 35  1  0
 42 36  2  0
 38 37  1  0
 39 38  1  0
 40 38  2  0
 41 39  1  0
A    1
C13
A    2
C18
A    3
C15
A    4
C19
A    5
C20
A    6
C21
A    7
C22
A    8
C23
A    9
C24
A   10
C34
A   11
C33
A   12
CL1
A   13
C2
A   14
C3
A   15
C4
A   16
C5
A   17
C6
A   18
C7
A   19
N8
A   20
C9
A   21
N10
A   22
N11
A   23
N12
A   24
C14
A   25
O16
A   26
N17
A   27
C25
A   28
C26
A   29
N27
A   30
C28
A   31
C29
A   32
N30
A   33
N31
A   34
C32
A   35
C35
A   36
C36
A   37
N37
A   38
C38
A   39
O39
A   40
O40
A   41
C41
A   42
O42
A   43
C43
M  END
>  <Id>  (28) 
5Q0E_9FD_A_301

>  <ChainId>  (28) 
A

>  <AsymId>  (28) 
B

>  <SeqNum>  (28) 
301

>  <Name>  (28) 
methyl [(4S,8S)-8-({(2E)-3-[5-chloro-2-(1H-tetrazol-1-yl)phenyl]prop-2-enoyl}amino)-4-methyl-2-oxo-1,3,4,5,6,7,8,10-octahydro-2H-12,9-(azeno)-1,10-benzodiazacyclotetradecin-15-yl]carbamate

>  <SystematicName>  (28) 
methyl ~{N}-[(11~{S},15~{S})-15-[[(~{E})-3-[5-chloranyl-2-(1,2,3,4-tetrazol-1-yl)phenyl]prop-2-enoyl]amino]-11-methyl-9-oxidanylidene-8,17,19-triazatricyclo[14.2.1.0^{2,7}]nonadeca-1(18),2,4,6,16(19)-pentaen-5-yl]carbamate

>  <Synonyms>  (28) 


>  <Type>  (28) 
NON-POLYMER

>  <Formula>  (28) 
C29 H30 Cl N9 O4

>  <ObservedFormula>  (28) 
C29 Cl N9 O4

>  <MolecularWeight>  (28) 
604.059

>  <ModifiedDate>  (28) 
2017-07-07

>  <Parent>  (28) 


>  <OneLetterCode>  (28) 


>  <SubcomponentList>  (28) 


>  <AmbiguousFlag>  (28) 
N

>  <InsertionCode>  (28) 


>  <InstanceId>  (28) 
5Q0E_9FD_A_301

>  <ChemCompId>  (28) 
9FD

>  <PdbId>  (28) 
5Q0E

>  <ResidueNumber>  (28) 
301

>  <InChI>  (28) 
InChI=1S/C29H30ClN9O4/c1-17-4-3-5-22(34-26(40)11-6-18-13-19(30)7-10-25(18)39-16-32-37-38-39)28-31-15-24(36-28)21-9-8-20(33-29(42)43-2)14-23(21)35-27(41)12-17/h6-11,13-17,22H,3-5,12H2,1-2H3,(H,31,36)(H,33,42)(H,34,40)(H,35,41)/b11-6+/t17-,22-/m0/s1

>  <InChIKey>  (28) 
GTMMYYLRFTWUSN-GQTIVUJGSA-N

>  <SMILES>  (28) 
C[C@H]1CCC[C@@H](c2[nH]cc(n2)-c3ccc(cc3NC(=O)C1)NC(=O)OC)NC(=O)/C=C/c4cc(ccc4n5cnnn5)Cl

>  <MissingHeavyAtoms>  (28) 
0

>  <Model>  (28) 
1

>  <AltIds>  (28) 


>  <pKI>  (28) 
9.16

>  <ChemblID>  (28) 
-

>  <standardized_canonical_smiles>  (28) 
COC(=O)Nc1ccc2c(c1)NC(=O)C[C@@H](C)CCC[C@H](NC(=O)/C=C/c1cc(Cl)ccc1-n1cnnn1)c1nc-2c[nH]1

$$$$
5TKU_7DK_A_301
     RDKit          3D

 42 46  0  0  0  0  0  0  0  0999 V2000
   37.7390  -17.0010   28.0280 C   0  0  0  0  0  0  0  0  0  0  0  0
   39.6760  -20.8890   28.5390 C   0  0  0  0  0  0  0  0  0  0  0  0
   39.0410  -18.7010   29.3880 C   0  0  0  0  0  0  0  0  0  0  0  0
   41.1780  -20.8100   28.5630 C   0  0  0  0  0  0  0  0  0  0  0  0
   39.2030  -21.9010   27.4870 C   0  0  0  0  0  0  0  0  0  0  0  0
   44.2930  -21.4690   30.1060 C   0  0  0  0  0  0  0  0  0  0  0  0
   45.4430  -20.6720   30.1450 C   0  0  0  0  0  0  0  0  0  0  0  0
   46.4730  -20.9460   31.0300 C   0  0  0  0  0  0  0  0  0  0  0  0
   46.3770  -22.0290   31.9070 C   0  0  0  0  0  0  0  0  0  0  0  0
   40.6210  -25.2480   29.1180 C   0  0  0  0  0  0  0  0  0  0  0  0
   39.8620  -23.9270   29.0360 C   0  0  0  0  0  0  0  0  0  0  0  0
   33.8140  -14.0140   29.5720 Cl  0  0  0  0  0  0  0  0  0  0  0  0
   36.7560  -13.5100   26.9100 C   0  0  0  0  0  0  0  0  0  0  0  0
   35.6370  -13.2940   27.7060 C   0  0  0  0  0  0  0  0  0  0  0  0
   35.2190  -14.2880   28.5680 C   0  0  0  0  0  0  0  0  0  0  0  0
   35.8880  -15.4950   28.6580 C   0  0  0  0  0  0  0  0  0  0  0  0
   37.0220  -15.7260   27.8590 C   0  0  0  0  0  0  0  0  0  0  0  0
   37.4430  -14.7230   26.9680 C   0  0  0  0  0  0  0  0  0  0  0  0
   38.5320  -14.9480   26.0670 N   0  0  0  0  0  0  0  0  0  0  0  0
   38.6040  -14.9390   24.7290 C   0  0  0  0  0  0  0  0  0  0  0  0
   39.8030  -15.2880   24.3510 N   0  0  0  0  0  0  0  0  0  0  0  0
   40.4960  -15.5140   25.4970 N   0  0  0  0  0  0  0  0  0  0  0  0
   39.7470  -15.3160   26.5380 N   0  0  0  0  0  0  0  0  0  0  0  0
   38.2750  -17.4510   29.1690 C   0  0  0  0  0  0  0  0  0  0  0  0
   39.6730  -18.9130   30.4290 O   0  0  0  0  0  0  0  0  0  0  0  0
   39.0710  -19.5690   28.3570 N   0  0  0  0  0  0  0  0  0  0  0  0
   45.2490  -22.8440   31.8630 C   0  0  0  0  0  0  0  0  0  0  0  0
   44.2110  -22.5800   30.9810 C   0  0  0  0  0  0  0  0  0  0  0  0
   41.9370  -20.6020   27.4680 N   0  0  0  0  0  0  0  0  0  0  0  0
   43.2380  -20.7840   27.8330 C   0  0  0  0  0  0  0  0  0  0  0  0
   43.2220  -21.1050   29.1620 C   0  0  0  0  0  0  0  0  0  0  0  0
   41.9180  -21.1030   29.6170 N   0  0  0  0  0  0  0  0  0  0  0  0
   43.0910  -23.4510   30.9510 N   0  0  0  0  0  0  0  0  0  0  0  0
   39.8400  -23.3100   27.6240 C   0  0  0  0  0  0  0  0  0  0  0  0
   41.7120  -25.2770   30.1780 C   0  0  0  0  0  0  0  0  0  0  0  0
   42.8120  -24.2750   29.9180 C   0  0  0  0  0  0  0  0  0  0  0  0
   47.4020  -22.4360   32.8040 N   0  0  0  0  0  0  0  0  0  0  0  0
   48.6920  -22.0020   32.8260 C   0  0  0  0  0  0  0  0  0  0  0  0
   49.3020  -22.4520   33.9390 O   0  0  0  0  0  0  0  0  0  0  0  0
   49.2290  -21.3180   31.9820 O   0  0  0  0  0  0  0  0  0  0  0  0
   50.7320  -22.2210   34.0240 C   0  0  0  0  0  0  0  0  0  0  0  0
   43.3890  -24.2180   28.8370 O   0  0  0  0  0  0  0  0  0  0  0  0
 17  1  1  0
 24  1  2  0
  4  2  1  0
  5  2  1  0
 26  2  1  0
 24  3  1  0
 25  3  2  0
 26  3  1  0
 29  4  1  0
 32  4  2  0
 34  5  1  0
  7  6  2  0
 28  6  1  0
 31  6  1  0
  8  7  1  0
  9  8  2  0
 27  9  1  0
 37  9  1  0
 11 10  1  0
 35 10  1  0
 34 11  1  0
 15 12  1  0
 14 13  2  0
 18 13  1  0
 15 14  1  0
 16 15  2  0
 17 16  1  0
 18 17  2  0
 19 18  1  0
 20 19  1  0
 23 19  1  0
 21 20  2  0
 22 21  1  0
 23 22  2  0
 28 27  2  0
 33 28  1  0
 30 29  1  0
 31 30  2  0
 32 31  1  0
 36 33  1  0
 36 35  1  0
 42 36  2  0
 38 37  1  0
 39 38  1  0
 40 38  2  0
 41 39  1  0
A    1
C13
A    2
C18
A    3
C15
A    4
C19
A    5
C20
A    6
C21
A    7
C22
A    8
C23
A    9
C24
A   10
C34
A   11
C33
A   12
CL1
A   13
C2
A   14
C3
A   15
C4
A   16
C5
A   17
C6
A   18
C7
A   19
N8
A   20
C9
A   21
N10
A   22
N11
A   23
N12
A   24
C14
A   25
O16
A   26
N17
A   27
C25
A   28
C26
A   29
N27
A   30
C28
A   31
C29
A   32
N30
A   33
N31
A   34
C32
A   35
C35
A   36
C36
A   37
N37
A   38
C38
A   39
O39
A   40
O40
A   41
C41
A   42
O42
M  END
>  <Id>  (29) 
5TKU_7DK_A_301

>  <ChainId>  (29) 
A

>  <AsymId>  (29) 
B

>  <SeqNum>  (29) 
301

>  <Name>  (29) 
METHYL ((15S)-15-(((2E)-3-(5-CHLORO-2-(1H-TETRAZOL-1-YL)PHENYL)-2-PROPENOYL)AMINO)-9-OXO-8,17,19-TRIAZATRICYCLO[14.2.1.0~2,7~]NONADECA-1(18),2,4,6,16(19)-PENTAEN-5-YL)CARBAMATE

>  <SystematicName>  (29) 
methyl ~{N}-[(15~{S})-15-[[(~{E})-3-[5-chloranyl-2-(1,2,3,4-tetrazol-1-yl)phenyl]prop-2-enoyl]amino]-9-oxidanylidene-8,17,19-triazatricyclo[14.2.1.0^{2,7}]nonadeca-1(18),2,4,6,16(19)-pentaen-5-yl]carbamate

>  <Synonyms>  (29) 
methyl [(8S)-8-({(2E)-3-[5-chloro-2-(1H-tetrazol-1-yl)phenyl]prop-2-enoyl}amino)-2-oxo-1,3,4,5,6,7,8,10-octahydro-2H-12,9-(azeno)-1,10-benzodiazacyclotetradecin-15-yl]carbamate

>  <Type>  (29) 
NON-POLYMER

>  <Formula>  (29) 
C28 H28 Cl N9 O4

>  <ObservedFormula>  (29) 
C28 Cl N9 O4

>  <MolecularWeight>  (29) 
590.033

>  <ModifiedDate>  (29) 
2017-02-24

>  <Parent>  (29) 


>  <OneLetterCode>  (29) 


>  <SubcomponentList>  (29) 


>  <AmbiguousFlag>  (29) 
N

>  <InsertionCode>  (29) 


>  <InstanceId>  (29) 
5TKU_7DK_A_301

>  <ChemCompId>  (29) 
7DK

>  <PdbId>  (29) 
5TKU

>  <ResidueNumber>  (29) 
301

>  <InChI>  (29) 
InChI=1S/C28H28ClN9O4/c1-42-28(41)32-19-9-10-20-22(14-19)34-25(39)6-4-2-3-5-21(27-30-15-23(20)35-27)33-26(40)12-7-17-13-18(29)8-11-24(17)38-16-31-36-37-38/h7-16,21H,2-6H2,1H3,(H,30,35)(H,32,41)(H,33,40)(H,34,39)/b12-7+/t21-/m0/s1

>  <InChIKey>  (29) 
VWVJGQUMBHIISP-SQEWALACSA-N

>  <SMILES>  (29) 
COC(=O)Nc1ccc-2c(c1)NC(=O)CCCCC[C@@H](c3[nH]cc2n3)NC(=O)/C=C/c4cc(ccc4n5cnnn5)Cl

>  <MissingHeavyAtoms>  (29) 
0

>  <Model>  (29) 
1

>  <AltIds>  (29) 


>  <pKI>  (29) 
8.49

>  <ChemblID>  (29) 
-

>  <standardized_canonical_smiles>  (29) 
COC(=O)Nc1ccc2c(c1)NC(=O)CCCCC[C@H](NC(=O)/C=C/c1cc(Cl)ccc1-n1cnnn1)c1nc-2c[nH]1

$$$$
5TKT_7DS_A_301
     RDKit          3D

 42 46  0  0  0  0  0  0  0  0999 V2000
   37.7230  -16.9960   28.0500 C   0  0  0  0  0  0  0  0  0  0  0  0
   39.5890  -20.8980   28.5600 C   0  0  0  0  0  0  0  0  0  0  0  0
   38.9890  -18.6990   29.4170 C   0  0  0  0  0  0  0  0  0  0  0  0
   41.0930  -20.8370   28.5930 C   0  0  0  0  0  0  0  0  0  0  0  0
   39.1350  -21.9030   27.4920 C   0  0  0  0  0  0  0  0  0  0  0  0
   44.2260  -21.4850   30.1240 C   0  0  0  0  0  0  0  0  0  0  0  0
   45.3760  -20.6890   30.1520 C   0  0  0  0  0  0  0  0  0  0  0  0
   46.4040  -20.9510   31.0440 C   0  0  0  0  0  0  0  0  0  0  0  0
   46.3100  -22.0260   31.9300 C   0  0  0  0  0  0  0  0  0  0  0  0
   40.5230  -25.2420   29.0950 C   0  0  0  0  0  0  0  0  0  0  0  0
   39.8890  -23.9000   28.8910 C   0  0  0  0  0  0  0  0  0  0  0  0
   33.8210  -14.0160   29.6510 Cl  0  0  0  0  0  0  0  0  0  0  0  0
   36.7590  -13.4890   26.9900 C   0  0  0  0  0  0  0  0  0  0  0  0
   35.6500  -13.2750   27.7990 C   0  0  0  0  0  0  0  0  0  0  0  0
   35.2250  -14.2810   28.6450 C   0  0  0  0  0  0  0  0  0  0  0  0
   35.8790  -15.4960   28.7060 C   0  0  0  0  0  0  0  0  0  0  0  0
   36.9990  -15.7280   27.8880 C   0  0  0  0  0  0  0  0  0  0  0  0
   37.4240  -14.7150   27.0140 C   0  0  0  0  0  0  0  0  0  0  0  0
   38.5200  -14.9320   26.1220 N   0  0  0  0  0  0  0  0  0  0  0  0
   38.6020  -14.9460   24.7870 C   0  0  0  0  0  0  0  0  0  0  0  0
   39.8110  -15.2700   24.4240 N   0  0  0  0  0  0  0  0  0  0  0  0
   40.5010  -15.4550   25.5760 N   0  0  0  0  0  0  0  0  0  0  0  0
   39.7420  -15.2550   26.6080 N   0  0  0  0  0  0  0  0  0  0  0  0
   38.2610  -17.4300   29.1900 C   0  0  0  0  0  0  0  0  0  0  0  0
   39.6300  -18.9140   30.4530 O   0  0  0  0  0  0  0  0  0  0  0  0
   38.9810  -19.5770   28.3930 N   0  0  0  0  0  0  0  0  0  0  0  0
   45.1900  -22.8520   31.8850 C   0  0  0  0  0  0  0  0  0  0  0  0
   44.1500  -22.5950   31.0010 C   0  0  0  0  0  0  0  0  0  0  0  0
   41.8580  -20.5930   27.5090 N   0  0  0  0  0  0  0  0  0  0  0  0
   43.1590  -20.7650   27.8790 C   0  0  0  0  0  0  0  0  0  0  0  0
   43.1410  -21.1140   29.1990 C   0  0  0  0  0  0  0  0  0  0  0  0
   41.8270  -21.1480   29.6450 N   0  0  0  0  0  0  0  0  0  0  0  0
   43.0300  -23.4660   30.9770 N   0  0  0  0  0  0  0  0  0  0  0  0
   39.7210  -23.2770   27.7100 C   0  0  0  0  0  0  0  0  0  0  0  0
   41.5750  -25.2450   30.2240 C   0  0  0  0  0  0  0  0  0  0  0  0
   42.6980  -24.2670   29.9420 C   0  0  0  0  0  0  0  0  0  0  0  0
   47.3270  -22.4230   32.8400 N   0  0  0  0  0  0  0  0  0  0  0  0
   48.6190  -22.0030   32.8560 C   0  0  0  0  0  0  0  0  0  0  0  0
   49.2290  -22.4560   33.9700 O   0  0  0  0  0  0  0  0  0  0  0  0
   49.1590  -21.3310   32.0030 O   0  0  0  0  0  0  0  0  0  0  0  0
   50.6470  -22.1650   34.0950 C   0  0  0  0  0  0  0  0  0  0  0  0
   43.2580  -24.2170   28.8520 O   0  0  0  0  0  0  0  0  0  0  0  0
 17  1  1  0
 24  1  2  0
  4  2  1  0
  5  2  1  0
 26  2  1  0
 24  3  1  0
 25  3  2  0
 26  3  1  0
 29  4  1  0
 32  4  2  0
 34  5  1  0
  7  6  2  0
 28  6  1  0
 31  6  1  0
  8  7  1  0
  9  8  2  0
 27  9  1  0
 37  9  1  0
 11 10  1  0
 35 10  1  0
 34 11  2  0
 15 12  1  0
 14 13  2  0
 18 13  1  0
 15 14  1  0
 16 15  2  0
 17 16  1  0
 18 17  2  0
 19 18  1  0
 20 19  1  0
 23 19  1  0
 21 20  2  0
 22 21  1  0
 23 22  2  0
 28 27  2  0
 33 28  1  0
 30 29  1  0
 31 30  2  0
 32 31  1  0
 36 33  1  0
 36 35  1  0
 42 36  2  0
 38 37  1  0
 39 38  1  0
 40 38  2  0
 41 39  1  0
A    1
C13
A    2
C18
A    3
C15
A    4
C19
A    5
C20
A    6
C21
A    7
C22
A    8
C23
A    9
C24
A   10
C34
A   11
C33
A   12
CL1
A   13
C2
A   14
C3
A   15
C4
A   16
C5
A   17
C6
A   18
C7
A   19
N8
A   20
C9
A   21
N10
A   22
N11
A   23
N12
A   24
C14
A   25
O16
A   26
N17
A   27
C25
A   28
C26
A   29
N27
A   30
C28
A   31
C29
A   32
N30
A   33
N31
A   34
C32
A   35
C35
A   36
C36
A   37
N37
A   38
C38
A   39
O39
A   40
O40
A   41
C41
A   42
O42
M  END
>  <Id>  (30) 
5TKT_7DS_A_301

>  <ChainId>  (30) 
A

>  <AsymId>  (30) 
B

>  <SeqNum>  (30) 
301

>  <Name>  (30) 
METHYL ((12E,15S)-15-(((2E)-3-(5-CHLORO-2-(1H-TETRAZOL-1-YL)PHENYL)-2-PROPENOYL)AMINO)-9-OXO-8,17,19-TRIAZATRICYCLO[14.2.1.0~2,7~]NONADECA-1(18),2,4,6,12,16(19)-HEXAEN-5-YL)CARBAMATE

>  <SystematicName>  (30) 
methyl ~{N}-[(12~{E},15~{S})-15-[[(~{E})-3-[5-chloranyl-2-(1,2,3,4-tetrazol-1-yl)phenyl]prop-2-enoyl]amino]-9-oxidanylidene-8,17,19-triazatricyclo[14.2.1.0^{2,7}]nonadeca-1(18),2,4,6,12,16(19)-hexaen-5-yl]carbamate

>  <Synonyms>  (30) 
methyl [(5E,8S)-8-({(2E)-3-[5-chloro-2-(1H-tetrazol-1-yl)phenyl]prop-2-enoyl}amino)-2-oxo-1,3,4,7,8,10-hexahydro-2H-12,9-(azeno)-1,10-benzodiazacyclotetradecin-15-yl]carbamate

>  <Type>  (30) 
NON-POLYMER

>  <Formula>  (30) 
C28 H26 Cl N9 O4

>  <ObservedFormula>  (30) 
C28 Cl N9 O4

>  <MolecularWeight>  (30) 
588.017

>  <ModifiedDate>  (30) 
2017-02-24

>  <Parent>  (30) 


>  <OneLetterCode>  (30) 


>  <SubcomponentList>  (30) 


>  <AmbiguousFlag>  (30) 
N

>  <InsertionCode>  (30) 


>  <InstanceId>  (30) 
5TKT_7DS_A_301

>  <ChemCompId>  (30) 
7DS

>  <PdbId>  (30) 
5TKT

>  <ResidueNumber>  (30) 
301

>  <InChI>  (30) 
InChI=1S/C28H26ClN9O4/c1-42-28(41)32-19-9-10-20-22(14-19)34-25(39)6-4-2-3-5-21(27-30-15-23(20)35-27)33-26(40)12-7-17-13-18(29)8-11-24(17)38-16-31-36-37-38/h2-3,7-16,21H,4-6H2,1H3,(H,30,35)(H,32,41)(H,33,40)(H,34,39)/b3-2+,12-7+/t21-/m0/s1

>  <InChIKey>  (30) 
LCHKINZSWVDWJQ-XYWZPVONSA-N

>  <SMILES>  (30) 
COC(=O)Nc1ccc-2c(c1)NC(=O)CC/C=C/C[C@@H](c3[nH]cc2n3)NC(=O)/C=C/c4cc(ccc4n5cnnn5)Cl

>  <MissingHeavyAtoms>  (30) 
0

>  <Model>  (30) 
1

>  <AltIds>  (30) 


>  <pKI>  (30) 
8.28

>  <ChemblID>  (30) 
-

>  <standardized_canonical_smiles>  (30) 
COC(=O)Nc1ccc2c(c1)NC(=O)CC/C=C/C[C@H](NC(=O)/C=C/c1cc(Cl)ccc1-n1cnnn1)c1nc-2c[nH]1

$$$$
6C0S_EEJ_A_301
     RDKit          3D

 46 50  0  0  0  0  0  0  0  0999 V2000
   45.9500  -20.8730   30.9580 C   0  0  0  0  0  0  0  0  0  0  0  0
   44.4280  -22.4450   31.9220 C   0  0  0  0  0  0  0  0  0  0  0  0
   45.3500  -22.7360   32.9150 C   0  0  0  0  0  0  0  0  0  0  0  0
   46.6020  -22.1200   32.9200 C   0  0  0  0  0  0  0  0  0  0  0  0
   37.7750  -15.0380   27.6760 C   0  0  0  0  0  0  0  0  0  0  0  0
   37.1050  -13.8170   27.5850 C   0  0  0  0  0  0  0  0  0  0  0  0
   35.9790  -13.5690   28.3550 C   0  0  0  0  0  0  0  0  0  0  0  0
   35.5200  -14.5470   29.2150 C   0  0  0  0  0  0  0  0  0  0  0  0
   36.1600  -15.7610   29.3260 C   0  0  0  0  0  0  0  0  0  0  0  0
   37.3030  -16.0240   28.5590 C   0  0  0  0  0  0  0  0  0  0  0  0
   42.3600  -21.1700   30.2040 C   0  0  0  0  0  0  0  0  0  0  0  0
   44.7070  -21.5090   30.9200 C   0  0  0  0  0  0  0  0  0  0  0  0
   48.8390  -22.1840   34.0710 C   0  0  0  0  0  0  0  0  0  0  0  0
   38.8830  -15.1410   25.4020 C   0  0  0  0  0  0  0  0  0  0  0  0
   34.0760  -14.2590   30.1580 Cl  0  0  0  0  0  0  0  0  0  0  0  0
   45.6130  -21.1290   27.8490 Cl  0  0  0  0  0  0  0  0  0  0  0  0
   39.2430  -19.8970   29.2330 N   0  0  0  0  0  0  0  0  0  0  0  0
   39.9450  -21.1540   29.4980 C   0  0  0  0  0  0  0  0  0  0  0  0
   41.4140  -20.9570   29.2070 C   0  0  0  0  0  0  0  0  0  0  0  0
   39.4390  -22.3710   28.7020 C   0  0  0  0  0  0  0  0  0  0  0  0
   41.7630  -20.7240   27.9410 N   0  0  0  0  0  0  0  0  0  0  0  0
   43.0550  -20.7540   27.5910 N   0  0  0  0  0  0  0  0  0  0  0  0
   43.9930  -21.0020   28.4810 C   0  0  0  0  0  0  0  0  0  0  0  0
   43.7090  -21.2090   29.8490 C   0  0  0  0  0  0  0  0  0  0  0  0
   46.8940  -21.1870   31.9240 C   0  0  0  0  0  0  0  0  0  0  0  0
   47.5250  -22.5300   33.9340 N   0  0  0  0  0  0  0  0  0  0  0  0
   38.7790  -15.3620   26.7140 N   0  0  0  0  0  0  0  0  0  0  0  0
   37.9740  -17.3200   28.7440 C   0  0  0  0  0  0  0  0  0  0  0  0
   40.0700  -15.4900   24.9880 N   0  0  0  0  0  0  0  0  0  0  0  0
   40.7360  -15.8990   26.0960 N   0  0  0  0  0  0  0  0  0  0  0  0
   39.9760  -15.8340   27.1420 N   0  0  0  0  0  0  0  0  0  0  0  0
   38.4970  -17.7070   29.8980 C   0  0  0  0  0  0  0  0  0  0  0  0
   39.2380  -18.9540   30.1990 C   0  0  0  0  0  0  0  0  0  0  0  0
   39.8650  -19.0980   31.2520 O   0  0  0  0  0  0  0  0  0  0  0  0
   49.4840  -21.4870   33.3150 O   0  0  0  0  0  0  0  0  0  0  0  0
   49.3420  -22.7530   35.1800 O   0  0  0  0  0  0  0  0  0  0  0  0
   50.7650  -22.5730   35.4040 C   0  0  0  0  0  0  0  0  0  0  0  0
   40.1290  -23.7130   29.0520 C   0  0  0  0  0  0  0  0  0  0  0  0
   40.0910  -24.0690   30.5350 C   0  0  0  0  0  0  0  0  0  0  0  0
   40.8920  -25.3320   30.8240 C   0  0  0  0  0  0  0  0  0  0  0  0
   40.4630  -26.4830   29.9100 C   0  0  0  0  0  0  0  0  0  0  0  0
   40.3580  -26.0900   28.4910 N   0  0  0  0  0  0  0  0  0  0  0  0
   39.5540  -24.8830   28.2620 C   0  0  0  0  0  0  0  0  0  0  0  0
   41.0190  -26.7780   27.5060 C   0  0  0  0  0  0  0  0  0  0  0  0
   41.8120  -27.6640   27.7810 O   0  0  0  0  0  0  0  0  0  0  0  0
   40.7940  -26.3750   26.0810 C   0  0  0  0  0  0  0  0  0  0  0  0
 12  1  2  0
 25  1  1  0
  3  2  2  0
 12  2  1  0
  4  3  1  0
 25  4  2  0
 26  4  1  0
  6  5  2  0
 10  5  1  0
 27  5  1  0
  7  6  1  0
  8  7  2  0
  9  8  1  0
 15  8  1  0
 10  9  2  0
 28 10  1  0
 19 11  2  0
 24 11  1  0
 24 12  1  0
 26 13  1  0
 35 13  2  0
 36 13  1  0
 27 14  1  0
 29 14  2  0
 23 16  1  0
 18 17  1  0
 33 17  1  0
 19 18  1  0
 20 18  1  0
 21 19  1  0
 38 20  1  0
 22 21  2  0
 23 22  1  0
 24 23  2  0
 31 27  1  0
 32 28  2  0
 30 29  1  0
 31 30  2  0
 33 32  1  0
 34 33  2  0
 37 36  1  0
 39 38  1  0
 43 38  1  0
 40 39  1  0
 41 40  1  0
 42 41  1  0
 43 42  1  0
 44 42  1  0
 45 44  2  0
 46 44  1  0
A    1
C13
A    2
C17
A    3
C16
A    4
C15
A    5
C19
A    6
C20
A    7
C21
A    8
C22
A    9
C23
A   10
C24
A   11
C11
A   12
C12
A   13
C34
A   14
C27
A   15
CL1
A   16
CL2
A   17
N3
A   18
C4
A   19
C5
A   20
C6
A   21
N7
A   22
N8
A   23
C9
A   24
C10
A   25
C14
A   26
N18
A   27
N25
A   28
C26
A   29
N28
A   30
N29
A   31
N30
A   32
C31
A   33
C32
A   34
O33
A   35
O35
A   36
O36
A   37
C37
A   38
C38
A   39
C39
A   40
C40
A   41
C41
A   42
N42
A   43
C43
A   44
C44
A   45
O45
A   46
C46
M  END
>  <Id>  (31) 
6C0S_EEJ_A_301

>  <ChainId>  (31) 
A

>  <AsymId>  (31) 
B

>  <SeqNum>  (31) 
301

>  <Name>  (31) 
methyl (4-{6-[(1S)-2-[(3R)-1-acetylpiperidin-3-yl]-1-({(2E)-3-[5-chloro-2-(1H-tetrazol-1-yl)phenyl]prop-2-enoyl}amino)ethyl]-3-chloropyridazin-4-yl}phenyl)carbamate

>  <SystematicName>  (31) 
methyl ~{N}-[4-[3-chloranyl-6-[(1~{S})-1-[[(~{E})-3-[5-chloranyl-2-(1,2,3,4-tetrazol-1-yl)phenyl]prop-2-enoyl]amino]-2-[(3~{R})-1-ethanoylpiperidin-3-yl]ethyl]pyridazin-4-yl]phenyl]carbamate

>  <Synonyms>  (31) 


>  <Type>  (31) 
NON-POLYMER

>  <Formula>  (31) 
C31 H31 Cl2 N9 O4

>  <ObservedFormula>  (31) 
C31 Cl2 N9 O4

>  <MolecularWeight>  (31) 
664.542

>  <ModifiedDate>  (31) 
2018-03-02

>  <Parent>  (31) 


>  <OneLetterCode>  (31) 


>  <SubcomponentList>  (31) 


>  <AmbiguousFlag>  (31) 
N

>  <InsertionCode>  (31) 


>  <InstanceId>  (31) 
6C0S_EEJ_A_301

>  <ChemCompId>  (31) 
EEJ

>  <PdbId>  (31) 
6C0S

>  <ResidueNumber>  (31) 
301

>  <InChI>  (31) 
InChI=1S/C31H31Cl2N9O4/c1-19(43)41-13-3-4-20(17-41)14-26(36-29(44)12-7-22-15-23(32)8-11-28(22)42-18-34-39-40-42)27-16-25(30(33)38-37-27)21-5-9-24(10-6-21)35-31(45)46-2/h5-12,15-16,18,20,26H,3-4,13-14,17H2,1-2H3,(H,35,45)(H,36,44)/b12-7+/t20-,26+/m1/s1

>  <InChIKey>  (31) 
QCCGVMDYTWPPFU-BONIYOLGSA-N

>  <SMILES>  (31) 
CC(=O)N1CCC[C@@H](C1)C[C@@H](c2cc(c(nn2)Cl)c3ccc(cc3)NC(=O)OC)NC(=O)/C=C/c4cc(ccc4n5cnnn5)Cl

>  <MissingHeavyAtoms>  (31) 
0

>  <Model>  (31) 
1

>  <AltIds>  (31) 


>  <pKI>  (31) 
7.05

>  <ChemblID>  (31) 
-

>  <standardized_canonical_smiles>  (31) 
COC(=O)Nc1ccc(-c2cc([C@H](C[C@H]3CCCN(C(C)=O)C3)NC(=O)/C=C/c3cc(Cl)ccc3-n3cnnn3)nnc2Cl)cc1

$$$$
4CRD_OTJ_A_1244
     RDKit          3D

 35 38  0  0  0  0  0  0  0  0999 V2000
  -28.7200  -54.6420   -7.9940 C   0  0  0  0  0  0  0  0  0  0  0  0
  -27.0810  -56.1420   -7.1260 C   0  0  0  0  0  0  0  0  0  0  0  0
  -18.6650  -48.7450  -10.5310 C   0  0  0  0  0  0  0  0  0  0  0  0
  -29.5810  -55.0110   -6.9850 C   0  0  0  0  0  0  0  0  0  0  0  0
  -27.9340  -56.5190   -6.0890 C   0  0  0  0  0  0  0  0  0  0  0  0
  -18.7880  -47.3690  -10.6480 C   0  0  0  0  0  0  0  0  0  0  0  0
  -21.0900  -47.6150  -11.3120 C   0  0  0  0  0  0  0  0  0  0  0  0
  -18.7110  -51.6950  -11.3670 C   0  0  0  0  0  0  0  0  0  0  0  0
  -27.4650  -55.2140   -8.0860 C   0  0  0  0  0  0  0  0  0  0  0  0
  -20.9900  -48.9900  -11.2100 C   0  0  0  0  0  0  0  0  0  0  0  0
  -19.7720  -49.5220  -10.8190 C   0  0  0  0  0  0  0  0  0  0  0  0
  -29.2010  -55.9470   -6.0450 C   0  0  0  0  0  0  0  0  0  0  0  0
  -19.9970  -46.8150  -11.0340 C   0  0  0  0  0  0  0  0  0  0  0  0
  -26.6170  -54.8020   -9.2100 C   0  0  0  0  0  0  0  0  0  0  0  0
  -25.6130  -55.5300   -9.8050 C   0  0  0  0  0  0  0  0  0  0  0  0
  -25.8020  -53.5970  -10.8050 C   0  0  0  0  0  0  0  0  0  0  0  0
  -24.2570  -50.9040  -10.3800 C   0  0  0  0  0  0  0  0  0  0  0  0
  -30.1150  -57.2880   -4.1790 C   0  0  0  0  0  0  0  0  0  0  0  0
  -31.1040  -58.0850   -2.2570 C   0  0  0  0  0  0  0  0  0  0  0  0
  -22.2070  -49.8260  -11.5270 C   0  0  0  0  0  0  0  0  0  0  0  0
  -25.5010  -52.5350  -11.7840 C   0  0  0  0  0  0  0  0  0  0  0  0
  -22.9820  -50.0930  -10.2390 C   0  0  0  0  0  0  0  0  0  0  0  0
  -18.8200  -52.9220  -10.9180 N   0  0  0  0  0  0  0  0  0  0  0  0
  -26.7230  -53.5940   -9.8510 N   0  0  0  0  0  0  0  0  0  0  0  0
  -19.8060  -52.9120   -9.9620 N   0  0  0  0  0  0  0  0  0  0  0  0
  -20.2870  -51.6720   -9.8360 N   0  0  0  0  0  0  0  0  0  0  0  0
  -25.1050  -54.7710  -10.8050 N   0  0  0  0  0  0  0  0  0  0  0  0
  -19.6110  -50.9150  -10.7020 N   0  0  0  0  0  0  0  0  0  0  0  0
  -30.1660  -56.2280   -5.0580 N   0  0  0  0  0  0  0  0  0  0  0  0
  -24.2910  -51.7770  -11.4370 N   0  0  0  0  0  0  0  0  0  0  0  0
  -25.1770  -50.8170   -9.5690 O   0  0  0  0  0  0  0  0  0  0  0  0
  -29.1900  -58.0850   -4.0230 O   0  0  0  0  0  0  0  0  0  0  0  0
  -31.2540  -57.3070   -3.4530 O   0  0  0  0  0  0  0  0  0  0  0  0
  -20.1530  -45.1050  -11.1750 Cl  0  0  0  0  0  0  0  0  0  0  0  0
  -24.9510  -57.1060   -9.5010 Cl  0  0  0  0  0  0  0  0  0  0  0  0
  4  1  2  0
  9  1  1  0
  5  2  1  0
  9  2  2  0
  6  3  2  0
 11  3  1  0
 12  4  1  0
 12  5  2  0
 13  6  1  0
 10  7  1  0
 13  7  2  0
 23  8  2  0
 28  8  1  0
 14  9  1  0
 11 10  2  0
 20 10  1  0
 28 11  1  0
 29 12  1  0
 34 13  1  0
 15 14  2  0
 24 14  1  0
 27 15  1  0
 35 15  1  0
 21 16  1  0
 24 16  2  0
 27 16  1  0
 22 17  1  0
 30 17  1  0
 31 17  2  0
 29 18  1  0
 32 18  2  0
 33 18  1  0
 33 19  1  0
 22 20  1  0
 30 21  1  0
 25 23  1  0
 26 25  1  0
 28 26  1  0
A    1
C1
A    2
C2
A    3
C3
A    4
C4
A    5
C5
A    6
C6
A    7
C7
A    8
C8
A    9
C9
A   10
C10
A   11
C11
A   12
C12
A   13
C13
A   14
C14
A   15
C15
A   16
C16
A   17
C17
A   18
C18
A   19
C19
A   20
C20
A   21
C21
A   22
C22
A   23
N23
A   24
N24
A   25
N25
A   26
N26
A   27
N27
A   28
N28
A   29
N29
A   30
N30
A   31
O31
A   32
O32
A   33
O33
A   34
CL3
A   35
CL5
M  END
>  <Id>  (32) 
4CRD_OTJ_A_1244

>  <ChainId>  (32) 
A

>  <AsymId>  (32) 
B

>  <SeqNum>  (32) 
1244

>  <Name>  (32) 
Methyl N-[4-[5-chloro-2-[[3-[5-chloro-2-(tetrazol-1-yl)phenyl]propanoylamino]methyl]-1H-imidazol-4-yl]phenyl]carbamate

>  <SystematicName>  (32) 
methyl N-[4-[5-chloranyl-2-[[3-[5-chloranyl-2-(2,3-dihydro-1,2,3,4-tetrazol-1-yl)phenyl]propanoylamino]methyl]-1H-imidazol-4-yl]phenyl]carbamate

>  <Synonyms>  (32) 


>  <Type>  (32) 
non-polymer

>  <Formula>  (32) 
C22 H22 Cl2 N8 O3

>  <ObservedFormula>  (32) 
C22 Cl2 N8 O3

>  <MolecularWeight>  (32) 
517.368

>  <ModifiedDate>  (32) 
2015-02-06

>  <Parent>  (32) 


>  <OneLetterCode>  (32) 


>  <SubcomponentList>  (32) 


>  <AmbiguousFlag>  (32) 
N

>  <InsertionCode>  (32) 


>  <InstanceId>  (32) 
4CRD_OTJ_A_1244

>  <ChemCompId>  (32) 
OTJ

>  <PdbId>  (32) 
4CRD

>  <ResidueNumber>  (32) 
1244

>  <InChI>  (32) 
InChI=1S/C22H22Cl2N8O3/c1-35-22(34)27-16-6-2-13(3-7-16)20-21(24)29-18(28-20)11-25-19(33)9-4-14-10-15(23)5-8-17(14)32-12-26-30-31-32/h2-3,5-8,10,12,30-31H,4,9,11H2,1H3,(H,25,33)(H,27,34)(H,28,29)

>  <InChIKey>  (32) 
JTVUNKGTKMZKDP-UHFFFAOYSA-N

>  <SMILES>  (32) 
COC(=O)Nc1ccc(cc1)c2c([nH]c(n2)CNC(=O)CCc3cc(ccc3N4C=NNN4)Cl)Cl

>  <MissingHeavyAtoms>  (32) 
0

>  <Model>  (32) 
1

>  <AltIds>  (32) 


>  <pKI>  (32) 
7.1

>  <ChemblID>  (32) 
-

>  <standardized_canonical_smiles>  (32) 
COC(=O)Nc1ccc(-c2nc(CNC(=O)CCc3cc(Cl)ccc3N3C=NNN3)[nH]c2Cl)cc1

$$$$
5QCM_BVJ_A_301
     RDKit          3D

 41 45  0  0  0  0  0  0  0  0999 V2000
   38.4170  -17.1640   28.2360 C   0  0  0  0  0  0  0  0  0  0  0  0
   38.9180  -20.9600   27.3200 C   0  0  0  0  0  0  0  0  0  0  0  0
   39.3420  -19.2300   29.1570 C   0  0  0  0  0  0  0  0  0  0  0  0
   40.3750  -21.4340   29.3410 C   0  0  0  0  0  0  0  0  0  0  0  0
   40.2140  -22.9130   29.0360 C   0  0  0  0  0  0  0  0  0  0  0  0
   39.9000  -23.2320   27.7120 C   0  0  0  0  0  0  0  0  0  0  0  0
   39.6780  -22.1250   26.7090 C   0  0  0  0  0  0  0  0  0  0  0  0
   40.4080  -23.9350   29.9640 C   0  0  0  0  0  0  0  0  0  0  0  0
   44.9490  -20.8800   29.6190 C   0  0  0  0  0  0  0  0  0  0  0  0
   39.8100  -24.5730   27.3460 C   0  0  0  0  0  0  0  0  0  0  0  0
   46.2980  -20.9390   29.9340 C   0  0  0  0  0  0  0  0  0  0  0  0
   34.0340  -14.5850   29.6310 Cl  0  0  0  0  0  0  0  0  0  0  0  0
   37.0440  -13.8030   27.1080 C   0  0  0  0  0  0  0  0  0  0  0  0
   35.8630  -13.7070   27.8260 C   0  0  0  0  0  0  0  0  0  0  0  0
   35.4870  -14.7350   28.6710 C   0  0  0  0  0  0  0  0  0  0  0  0
   36.3010  -15.8500   28.8030 C   0  0  0  0  0  0  0  0  0  0  0  0
   37.5100  -15.9870   28.1110 C   0  0  0  0  0  0  0  0  0  0  0  0
   37.8320  -14.9510   27.2200 C   0  0  0  0  0  0  0  0  0  0  0  0
   38.8830  -15.1630   26.2750 N   0  0  0  0  0  0  0  0  0  0  0  0
   38.8680  -15.2980   24.9450 C   0  0  0  0  0  0  0  0  0  0  0  0
   40.0560  -15.6390   24.5260 N   0  0  0  0  0  0  0  0  0  0  0  0
   40.8310  -15.7060   25.6380 N   0  0  0  0  0  0  0  0  0  0  0  0
   40.1460  -15.4110   26.6960 N   0  0  0  0  0  0  0  0  0  0  0  0
   38.2130  -18.3990   28.6660 C   0  0  0  0  0  0  0  0  0  0  0  0
   40.0290  -18.8960   30.1110 O   0  0  0  0  0  0  0  0  0  0  0  0
   35.9210  -16.8190   29.6480 F   0  0  0  0  0  0  0  0  0  0  0  0
   39.5860  -20.4730   28.5370 N   0  0  0  0  0  0  0  0  0  0  0  0
   40.3170  -25.2570   29.5830 C   0  0  0  0  0  0  0  0  0  0  0  0
   40.0190  -25.5790   28.2770 C   0  0  0  0  0  0  0  0  0  0  0  0
   41.8750  -21.1320   29.2000 C   0  0  0  0  0  0  0  0  0  0  0  0
   42.3390  -20.7000   28.1450 O   0  0  0  0  0  0  0  0  0  0  0  0
   44.4070  -21.7280   31.7990 C   0  0  0  0  0  0  0  0  0  0  0  0
   45.7510  -21.7820   32.1130 C   0  0  0  0  0  0  0  0  0  0  0  0
   46.7110  -21.4230   31.1730 C   0  0  0  0  0  0  0  0  0  0  0  0
   43.9940  -21.3040   30.5410 C   0  0  0  0  0  0  0  0  0  0  0  0
   42.6010  -21.4210   30.3060 N   0  0  0  0  0  0  0  0  0  0  0  0
   48.0360  -21.7390   31.5690 N   0  0  0  0  0  0  0  0  0  0  0  0
   49.1950  -21.5560   30.8890 C   0  0  0  0  0  0  0  0  0  0  0  0
   50.1620  -22.3000   31.4650 O   0  0  0  0  0  0  0  0  0  0  0  0
   49.3570  -20.8460   29.9180 O   0  0  0  0  0  0  0  0  0  0  0  0
   51.1910  -22.8290   30.5890 C   0  0  0  0  0  0  0  0  0  0  0  0
 17  1  1  0
 24  1  2  0
  7  2  1  0
 27  2  1  0
 24  3  1  0
 25  3  2  0
 27  3  1  0
  5  4  1  0
 27  4  1  0
 30  4  1  0
  6  5  2  0
  8  5  1  0
  7  6  1  0
 10  6  1  0
 28  8  2  0
 11  9  2  0
 35  9  1  0
 29 10  2  0
 34 11  1  0
 15 12  1  0
 14 13  2  0
 18 13  1  0
 15 14  1  0
 16 15  2  0
 17 16  1  0
 26 16  1  0
 18 17  2  0
 19 18  1  0
 20 19  1  0
 23 19  1  0
 21 20  2  0
 22 21  1  0
 23 22  2  0
 29 28  1  0
 31 30  2  0
 36 30  1  0
 33 32  1  0
 35 32  2  0
 34 33  2  0
 37 34  1  0
 36 35  1  0
 38 37  1  0
 39 38  1  0
 40 38  2  0
 41 39  1  0
A    1
C13
A    2
C18
A    3
C15
A    4
C20
A    5
C21
A    6
C22
A    7
C23
A    8
C24
A    9
C34
A   10
C27
A   11
C33
A   12
CL1
A   13
C2
A   14
C3
A   15
C4
A   16
C5
A   17
C6
A   18
C7
A   19
N8
A   20
C9
A   21
N10
A   22
N11
A   23
N12
A   24
C14
A   25
O16
A   26
F17
A   27
N19
A   28
C25
A   29
C26
A   30
C28
A   31
O29
A   32
C30
A   33
C31
A   34
C32
A   35
C35
A   36
N36
A   37
N37
A   38
C38
A   39
O39
A   40
O40
A   41
C41
M  END
>  <Id>  (33) 
5QCM_BVJ_A_301

>  <ChainId>  (33) 
A

>  <AsymId>  (33) 
B

>  <SeqNum>  (33) 
301

>  <Name>  (33) 
methyl ~{N}-[4-[[(1~{S})-2-[(~{E})-3-[3-chloranyl-2-fluoranyl-6-(1,2,3,4-tetrazol-1-yl)phenyl]prop-2-enoyl]-3,4-dihydro-1~{H}-isoquinolin-1-yl]carbonylamino]phenyl]carbamate

>  <SystematicName>  (33) 
methyl ~{N}-[4-[[(1~{S})-2-[(~{E})-3-[3-chloranyl-2-fluoranyl-6-(1,2,3,4-tetrazol-1-yl)phenyl]prop-2-enoyl]-3,4-dihydro-1~{H}-isoquinolin-1-yl]carbonylamino]phenyl]carbamate

>  <Synonyms>  (33) 


>  <Type>  (33) 
NON-POLYMER

>  <Formula>  (33) 
C28 H23 Cl F N7 O4

>  <ObservedFormula>  (33) 
C28 F Cl N7 O4

>  <MolecularWeight>  (33) 
575.978

>  <ModifiedDate>  (33) 
2017-11-03

>  <Parent>  (33) 


>  <OneLetterCode>  (33) 


>  <SubcomponentList>  (33) 


>  <AmbiguousFlag>  (33) 
N

>  <InsertionCode>  (33) 


>  <InstanceId>  (33) 
5QCM_BVJ_A_301

>  <ChemCompId>  (33) 
BVJ

>  <PdbId>  (33) 
5QCM

>  <ResidueNumber>  (33) 
301

>  <InChI>  (33) 
InChI=1S/C28H23ClFN7O4/c1-41-28(40)33-19-8-6-18(7-9-19)32-27(39)26-20-5-3-2-4-17(20)14-15-36(26)24(38)13-10-21-23(37-16-31-34-35-37)12-11-22(29)25(21)30/h2-13,16,26H,14-15H2,1H3,(H,32,39)(H,33,40)/b13-10+/t26-/m0/s1

>  <InChIKey>  (33) 
VNRXJEHYEMPJMV-ITMPFJHPSA-N

>  <SMILES>  (33) 
COC(=O)Nc1ccc(cc1)NC(=O)[C@@H]2c3ccccc3CCN2C(=O)/C=C/c4c(ccc(c4F)Cl)n5cnnn5

>  <MissingHeavyAtoms>  (33) 
0

>  <Model>  (33) 
1

>  <AltIds>  (33) 


>  <pKI>  (33) 
6.96

>  <ChemblID>  (33) 
-

>  <standardized_canonical_smiles>  (33) 
COC(=O)Nc1ccc(NC(=O)[C@@H]2c3ccccc3CCN2C(=O)/C=C/c2c(-n3cnnn3)ccc(Cl)c2F)cc1

$$$$
4CRA_XJ8_A_1491
     RDKit          3D

 38 42  0  0  0  0  0  0  0  0999 V2000
  -26.4230  -55.5160   -9.7500 C   0  0  0  0  0  0  0  0  0  0  0  0
  -25.5140  -56.2710  -10.0540 O   0  0  0  0  0  0  0  0  0  0  0  0
  -27.3000  -55.8380   -8.5920 C   0  0  0  0  0  0  0  0  0  0  0  0
  -28.5010  -55.1250   -8.4030 C   0  0  0  0  0  0  0  0  0  0  0  0
  -29.3550  -55.4120   -7.3660 C   0  0  0  0  0  0  0  0  0  0  0  0
  -29.0420  -56.4380   -6.4650 C   0  0  0  0  0  0  0  0  0  0  0  0
  -27.8420  -57.1810   -6.6550 C   0  0  0  0  0  0  0  0  0  0  0  0
  -26.9780  -56.8820   -7.7200 C   0  0  0  0  0  0  0  0  0  0  0  0
  -27.5270  -58.2770   -5.7220 C   0  0  0  0  0  0  0  0  0  0  0  0
  -28.4290  -58.5770   -4.7280 C   0  0  0  0  0  0  0  0  0  0  0  0
  -29.6260  -57.8210   -4.5940 C   0  0  0  0  0  0  0  0  0  0  0  0
  -30.4230  -58.0990   -3.6990 O   0  0  0  0  0  0  0  0  0  0  0  0
  -29.8970  -56.7770   -5.4240 N   0  0  0  0  0  0  0  0  0  0  0  0
  -26.3600  -58.9590   -5.8740 O   0  0  0  0  0  0  0  0  0  0  0  0
  -26.6940  -54.4240  -10.5000 N   0  0  0  0  0  0  0  0  0  0  0  0
  -25.9410  -54.0630  -11.7010 C   0  0  0  0  0  0  0  0  0  0  0  0
  -25.1150  -52.8280  -11.5220 C   0  0  0  0  0  0  0  0  0  0  0  0
  -25.2820  -52.1280  -10.5470 O   0  0  0  0  0  0  0  0  0  0  0  0
  -27.0000  -53.6640  -12.7420 C   0  0  0  0  0  0  0  0  0  0  0  0
  -27.9180  -54.7840  -13.1970 C   0  0  0  0  0  0  0  0  0  0  0  0
  -29.2910  -54.6450  -13.0220 C   0  0  0  0  0  0  0  0  0  0  0  0
  -27.4020  -55.9220  -13.8290 C   0  0  0  0  0  0  0  0  0  0  0  0
  -30.1500  -55.6580  -13.4420 C   0  0  0  0  0  0  0  0  0  0  0  0
  -28.2570  -56.9380  -14.2570 C   0  0  0  0  0  0  0  0  0  0  0  0
  -29.6310  -56.7960  -14.0600 C   0  0  0  0  0  0  0  0  0  0  0  0
  -19.7300  -50.7950  -11.7610 C   0  0  0  0  0  0  0  0  0  0  0  0
  -19.2730  -52.1350  -11.6920 C   0  0  0  0  0  0  0  0  0  0  0  0
  -20.1700  -53.1590  -11.8550 C   0  0  0  0  0  0  0  0  0  0  0  0
  -21.5230  -52.8800  -12.0960 C   0  0  0  0  0  0  0  0  0  0  0  0
  -21.9830  -51.5860  -12.1840 C   0  0  0  0  0  0  0  0  0  0  0  0
  -21.1030  -50.5060  -12.0100 C   0  0  0  0  0  0  0  0  0  0  0  0
  -18.8830  -49.7830  -11.6020 N   0  0  0  0  0  0  0  0  0  0  0  0
  -19.2740  -48.5250  -11.6580 C   0  0  0  0  0  0  0  0  0  0  0  0
  -20.6130  -48.1520  -11.9100 C   0  0  0  0  0  0  0  0  0  0  0  0
  -18.2930  -47.5620  -11.4670 N   0  0  0  0  0  0  0  0  0  0  0  0
  -21.5440  -49.1460  -12.0820 C   0  0  0  0  0  0  0  0  0  0  0  0
  -23.4340  -51.2820  -12.4190 C   0  0  0  0  0  0  0  0  0  0  0  0
  -24.2460  -52.4930  -12.5020 N   0  0  0  0  0  0  0  0  0  0  0  0
  2  1  2  0
  3  1  1  0
 15  1  1  0
  4  3  2  0
  8  3  1  0
  5  4  1  0
  6  5  2  0
  7  6  1  0
 13  6  1  0
  8  7  2  0
  9  7  1  0
 10  9  2  0
 14  9  1  0
 11 10  1  0
 12 11  2  0
 13 11  1  0
 16 15  1  0
 17 16  1  0
 19 16  1  0
 18 17  2  0
 38 17  1  0
 20 19  1  0
 21 20  2  0
 22 20  1  0
 23 21  1  0
 24 22  2  0
 25 23  2  0
 25 24  1  0
 27 26  2  0
 31 26  1  0
 32 26  1  0
 28 27  1  0
 29 28  2  0
 30 29  1  0
 31 30  2  0
 37 30  1  0
 36 31  1  0
 33 32  2  0
 34 33  1  0
 35 33  1  0
 36 34  2  0
 38 37  1  0
A    1
C25
A    2
O26
A    3
C27
A    4
C28
A    5
C29
A    6
C30
A    7
C31
A    8
C32
A    9
C33
A   10
C34
A   11
C35
A   12
O36
A   13
N37
A   14
O38
A   15
N24
A   16
C21
A   17
C22
A   18
O23
A   19
C20
A   20
C17
A   21
C16
A   22
C18
A   23
C15
A   24
C19
A   25
C14
A   26
C1
A   27
C2
A   28
C3
A   29
C4
A   30
C5
A   31
C6
A   32
N7
A   33
C8
A   34
C9
A   35
N10
A   36
C11
A   37
C12
A   38
N13
M  END
>  <Id>  (34) 
4CRA_XJ8_A_1491

>  <ChainId>  (34) 
A

>  <AsymId>  (34) 
D

>  <SeqNum>  (34) 
1491

>  <Name>  (34) 
N-[(1S)-2-[(2-amino-5-quinolyl)methylamino]-1-benzyl-2-oxo-ethyl]-4-hydroxy-2-oxo-1H-quinoline-6-carboxamide

>  <SystematicName>  (34) 
N-[(2S)-1-[(2-azanylquinolin-5-yl)methylamino]-1-oxidanylidene-3-phenyl-propan-2-yl]-4-oxidanyl-2-oxidanylidene-1H-quinoline-6-carboxamide

>  <Synonyms>  (34) 


>  <Type>  (34) 
non-polymer

>  <Formula>  (34) 
C29 H25 N5 O4

>  <ObservedFormula>  (34) 
C29 N5 O4

>  <MolecularWeight>  (34) 
507.54

>  <ModifiedDate>  (34) 
2015-02-06

>  <Parent>  (34) 


>  <OneLetterCode>  (34) 


>  <SubcomponentList>  (34) 
7DM PHE RP8

>  <AmbiguousFlag>  (34) 
N

>  <InsertionCode>  (34) 


>  <InstanceId>  (34) 
4CRA_XJ8_A_1491

>  <ChemCompId>  (34) 
XJ8

>  <PdbId>  (34) 
4CRA

>  <ResidueNumber>  (34) 
1491

>  <InChI>  (34) 
InChI=1S/C29H25N5O4/c30-26-12-10-20-19(7-4-8-22(20)32-26)16-31-29(38)24(13-17-5-2-1-3-6-17)34-28(37)18-9-11-23-21(14-18)25(35)15-27(36)33-23/h1-12,14-15,24H,13,16H2,(H2,30,32)(H,31,38)(H,34,37)(H2,33,35,36)/t24-/m0/s1

>  <InChIKey>  (34) 
WHPQJMIXRFKMJB-DEOSSOPVSA-N

>  <SMILES>  (34) 
c1ccc(cc1)C[C@@H](C(=O)NCc2cccc3c2ccc(n3)N)NC(=O)c4ccc5c(c4)C(=CC(=O)N5)O

>  <MissingHeavyAtoms>  (34) 
0

>  <Model>  (34) 
1

>  <AltIds>  (34) 


>  <pKI>  (34) 
7.22

>  <ChemblID>  (34) 
-

>  <standardized_canonical_smiles>  (34) 
Nc1ccc2c(CNC(=O)[C@H](Cc3ccccc3)NC(=O)c3ccc4[nH]c(=O)cc(O)c4c3)cccc2n1

$$$$
4CRF_R9B_A_1438
     RDKit          3D

 39 43  0  0  0  0  0  0  0  0999 V2000
   55.1080   26.2910    9.7460 C   0  0  0  0  0  0  0  0  0  0  0  0
   55.9030   25.4390   10.0890 O   0  0  0  0  0  0  0  0  0  0  0  0
   55.5030   27.2100    8.6380 C   0  0  0  0  0  0  0  0  0  0  0  0
   54.8530   28.4460    8.4840 C   0  0  0  0  0  0  0  0  0  0  0  0
   55.2240   29.2870    7.4800 C   0  0  0  0  0  0  0  0  0  0  0  0
   56.2730   28.9690    6.6110 C   0  0  0  0  0  0  0  0  0  0  0  0
   56.9580   27.7580    6.7550 C   0  0  0  0  0  0  0  0  0  0  0  0
   56.5580   26.8840    7.7700 C   0  0  0  0  0  0  0  0  0  0  0  0
   58.0870   27.4910    5.8130 C   0  0  0  0  0  0  0  0  0  0  0  0
   58.4050   28.4190    4.8420 C   0  0  0  0  0  0  0  0  0  0  0  0
   57.6600   29.6130    4.7530 C   0  0  0  0  0  0  0  0  0  0  0  0
   57.9350   30.4470    3.8980 O   0  0  0  0  0  0  0  0  0  0  0  0
   56.6530   29.8500    5.6090 N   0  0  0  0  0  0  0  0  0  0  0  0
   58.8320   26.3780    5.8830 O   0  0  0  0  0  0  0  0  0  0  0  0
   53.9130   26.4090   10.3940 N   0  0  0  0  0  0  0  0  0  0  0  0
   53.4960   25.5340   11.4910 C   0  0  0  0  0  0  0  0  0  0  0  0
   52.1850   24.8580   11.1870 C   0  0  0  0  0  0  0  0  0  0  0  0
   51.5720   25.0900   10.1570 O   0  0  0  0  0  0  0  0  0  0  0  0
   53.2250   26.3830   12.7300 C   0  0  0  0  0  0  0  0  0  0  0  0
   54.1600   27.5380   12.8420 C   0  0  0  0  0  0  0  0  0  0  0  0
   53.7070   28.8010   12.4820 C   0  0  0  0  0  0  0  0  0  0  0  0
   55.4670   27.3270   13.2990 C   0  0  0  0  0  0  0  0  0  0  0  0
   54.5700   29.8810   12.5870 C   0  0  0  0  0  0  0  0  0  0  0  0
   56.3330   28.4050   13.4000 C   0  0  0  0  0  0  0  0  0  0  0  0
   55.8700   29.6710   13.0480 C   0  0  0  0  0  0  0  0  0  0  0  0
   49.0210   18.5070   11.3950 C   0  0  0  0  0  0  0  0  0  0  0  0
   47.7160   18.8800   11.6200 C   0  0  0  0  0  0  0  0  0  0  0  0
   47.4320   20.2050   11.9060 C   0  0  0  0  0  0  0  0  0  0  0  0
   48.3940   21.1910   11.9750 C   0  0  0  0  0  0  0  0  0  0  0  0
   45.7910   20.6150   12.1660 Cl  0  0  0  0  0  0  0  0  0  0  0  0
   49.7200   20.8190   11.7500 C   0  0  0  0  0  0  0  0  0  0  0  0
   50.0300   19.4710   11.4580 C   0  0  0  0  0  0  0  0  0  0  0  0
   51.3480   19.0820   11.2930 N   0  0  0  0  0  0  0  0  0  0  0  0
   52.3490   19.9880   11.4490 C   0  0  0  0  0  0  0  0  0  0  0  0
   52.0910   21.3830   11.6960 C   0  0  0  0  0  0  0  0  0  0  0  0
   50.8010   21.8220   11.8160 C   0  0  0  0  0  0  0  0  0  0  0  0
   53.5070   19.6070   11.3370 O   0  0  0  0  0  0  0  0  0  0  0  0
   50.4660   23.2800   12.0240 C   0  0  0  0  0  0  0  0  0  0  0  0
   51.6980   24.0230   12.1330 N   0  0  0  0  0  0  0  0  0  0  0  0
  2  1  2  0
  3  1  1  0
 15  1  1  0
  4  3  2  0
  8  3  1  0
  5  4  1  0
  6  5  2  0
  7  6  1  0
 13  6  1  0
  8  7  2  0
  9  7  1  0
 10  9  2  0
 14  9  1  0
 11 10  1  0
 12 11  2  0
 13 11  1  0
 16 15  1  0
 17 16  1  0
 19 16  1  0
 18 17  2  0
 39 17  1  0
 20 19  1  0
 21 20  2  0
 22 20  1  0
 23 21  1  0
 24 22  2  0
 25 23  2  0
 25 24  1  0
 27 26  2  0
 32 26  1  0
 28 27  1  0
 29 28  2  0
 30 28  1  0
 31 29  1  0
 32 31  2  0
 36 31  1  0
 33 32  1  0
 34 33  1  0
 35 34  1  0
 37 34  2  0
 36 35  2  0
 38 36  1  0
 39 38  1  0
A    1
C27
A    2
O28
A    3
C15
A    4
C16
A    5
C17
A    6
C20
A    7
C19
A    8
C18
A    9
C24
A   10
C23
A   11
C22
A   12
O26
A   13
N21
A   14
O25
A   15
N29
A   16
C30
A   17
C31
A   18
O32
A   19
C33
A   20
C34
A   21
C35
A   22
C39
A   23
C36
A   24
C38
A   25
C37
A   26
C1
A   27
C2
A   28
C3
A   29
C4
A   30
CL5
A   31
C6
A   32
C7
A   33
N8
A   34
C9
A   35
C10
A   36
C11
A   37
O12
A   38
C13
A   39
N14
M  END
>  <Id>  (35) 
4CRF_R9B_A_1438

>  <ChainId>  (35) 
A

>  <AsymId>  (35) 
F

>  <SeqNum>  (35) 
1438

>  <Name>  (35) 
N-[(1S)-1-benzyl-2-[(6-chloro-2-oxo-1H-quinolin-4-yl)methylamino]-2-oxo-ethyl]-4-hydroxy-2-oxo-1H-quinoline-6-carbo

>  <SystematicName>  (35) 
N-[(2S)-1-[(6-chloranyl-2-oxidanylidene-1H-quinolin-4-yl)methylamino]-1-oxidanylidene-3-phenyl-propan-2-yl]-4-oxidanyl-2-oxidanylidene-1H-quinoline-6-carboxamide

>  <Synonyms>  (35) 


>  <Type>  (35) 
non-polymer

>  <Formula>  (35) 
C29 H23 Cl N4 O5

>  <ObservedFormula>  (35) 
C29 Cl N4 O5

>  <MolecularWeight>  (35) 
542.97

>  <ModifiedDate>  (35) 
2015-02-06

>  <Parent>  (35) 


>  <OneLetterCode>  (35) 


>  <SubcomponentList>  (35) 
7DM PHE ILL

>  <AmbiguousFlag>  (35) 
N

>  <InsertionCode>  (35) 


>  <InstanceId>  (35) 
4CRF_R9B_A_1438

>  <ChemCompId>  (35) 
R9B

>  <PdbId>  (35) 
4CRF

>  <ResidueNumber>  (35) 
1438

>  <InChI>  (35) 
InChI=1S/C29H23ClN4O5/c30-19-7-9-22-20(13-19)18(12-26(36)32-22)15-31-29(39)24(10-16-4-2-1-3-5-16)34-28(38)17-6-8-23-21(11-17)25(35)14-27(37)33-23/h1-9,11-14,24H,10,15H2,(H,31,39)(H,32,36)(H,34,38)(H2,33,35,37)/t24-/m0/s1

>  <InChIKey>  (35) 
DNDMLXSODUEUMP-DEOSSOPVSA-N

>  <SMILES>  (35) 
c1ccc(cc1)C[C@@H](C(=O)NCC2=CC(=O)Nc3c2cc(cc3)Cl)NC(=O)c4ccc5c(c4)C(=CC(=O)N5)O

>  <MissingHeavyAtoms>  (35) 
0

>  <Model>  (35) 
1

>  <AltIds>  (35) 


>  <pKI>  (35) 
9.3

>  <ChemblID>  (35) 
-

>  <standardized_canonical_smiles>  (35) 
O=C(N[C@@H](Cc1ccccc1)C(=O)NCc1cc(=O)[nH]c2ccc(Cl)cc12)c1ccc2[nH]c(=O)cc(O)c2c1

$$$$
4TY7_39F_A_301
     RDKit          3D

 35 38  0  0  0  0  0  0  0  0999 V2000
   43.3180  -20.7680   29.2950 C   0  0  0  0  0  0  0  0  0  0  0  0
   37.0790  -16.9450   29.4050 C   0  0  0  0  0  0  0  0  0  0  0  0
   38.9840  -18.4880   28.9910 C   0  0  0  0  0  0  0  0  0  0  0  0
   41.2260  -20.6240   28.6660 C   0  0  0  0  0  0  0  0  0  0  0  0
   43.2270  -20.4720   27.9460 C   0  0  0  0  0  0  0  0  0  0  0  0
   38.9440  -16.2560   27.7610 C   0  0  0  0  0  0  0  0  0  0  0  0
   36.2080  -15.7740   28.9140 C   0  0  0  0  0  0  0  0  0  0  0  0
   38.0230  -15.1310   27.2390 C   0  0  0  0  0  0  0  0  0  0  0  0
   38.1240  -17.4130   28.3800 C   0  0  0  0  0  0  0  0  0  0  0  0
   37.0820  -14.6190   28.3540 C   0  0  0  0  0  0  0  0  0  0  0  0
   39.2740  -22.1150   28.0390 C   0  0  0  0  0  0  0  0  0  0  0  0
   40.0950  -23.3030   28.5160 C   0  0  0  0  0  0  0  0  0  0  0  0
   46.7530  -20.9130   30.6750 C   0  0  0  0  0  0  0  0  0  0  0  0
   41.7000  -25.3960   29.4660 C   0  0  0  0  0  0  0  0  0  0  0  0
   41.9320  -24.8620   28.1820 C   0  0  0  0  0  0  0  0  0  0  0  0
   40.6800  -24.8740   30.2660 C   0  0  0  0  0  0  0  0  0  0  0  0
   45.3250  -22.3170   32.0620 C   0  0  0  0  0  0  0  0  0  0  0  0
   44.2460  -21.9410   31.2400 C   0  0  0  0  0  0  0  0  0  0  0  0
   41.1300  -23.8120   27.7140 C   0  0  0  0  0  0  0  0  0  0  0  0
   39.9030  -23.8090   29.8100 C   0  0  0  0  0  0  0  0  0  0  0  0
   45.6840  -20.4920   29.8720 C   0  0  0  0  0  0  0  0  0  0  0  0
   46.6050  -21.7960   31.7550 C   0  0  0  0  0  0  0  0  0  0  0  0
   44.4280  -21.0580   30.1580 C   0  0  0  0  0  0  0  0  0  0  0  0
   47.9210  -21.9250   32.2790 C   0  0  0  0  0  0  0  0  0  0  0  0
   36.2000  -13.4510   27.8680 C   0  0  0  0  0  0  0  0  0  0  0  0
   39.7200  -20.8100   28.7620 C   0  0  0  0  0  0  0  0  0  0  0  0
   48.8150  -21.2250   31.5820 N   0  0  0  0  0  0  0  0  0  0  0  0
   41.9160  -20.3620   27.5820 N   0  0  0  0  0  0  0  0  0  0  0  0
   48.0880  -20.6060   30.6310 N   0  0  0  0  0  0  0  0  0  0  0  0
   42.0350  -20.9460   29.7090 N   0  0  0  0  0  0  0  0  0  0  0  0
   48.2080  -22.7050   33.3540 N   0  0  0  0  0  0  0  0  0  0  0  0
   37.0110  -12.3380   27.4490 N   0  0  0  0  0  0  0  0  0  0  0  0
   38.9810  -19.6620   28.2840 N   0  0  0  0  0  0  0  0  0  0  0  0
   39.5960  -18.3250   30.0530 O   0  0  0  0  0  0  0  0  0  0  0  0
   44.4780  -20.1680   26.7930 Cl  0  0  0  0  0  0  0  0  0  0  0  0
  5  1  2  0
 23  1  1  0
 30  1  1  0
  7  2  1  0
  9  2  1  0
  9  3  1  0
 33  3  1  0
 34  3  2  0
 26  4  1  0
 28  4  1  0
 30  4  2  0
 28  5  1  0
 35  5  1  0
  8  6  1  0
  9  6  1  0
 10  8  1  0
 25 10  1  0
 12 11  1  0
 26 11  1  0
 19 12  2  0
 20 12  1  0
 21 13  1  0
 22 13  1  0
 29 13  2  0
 15 14  2  0
 16 14  1  0
 19 15  1  0
 20 16  2  0
 18 17  2  0
 22 17  1  0
 23 18  1  0
 23 21  2  0
 24 22  2  0
 27 24  1  0
 31 24  1  0
 32 25  1  0
 33 26  1  0
 29 27  1  0
A    1
C13
A    2
C18
A    3
C17
A    4
C16
A    5
C15
A    6
C19
A    7
C20
A    8
C21
A    9
C22
A   10
C23
A   11
C24
A   12
C11
A   13
C12
A   14
C1
A   15
C2
A   16
C3
A   17
C4
A   18
C5
A   19
C6
A   20
C7
A   21
C8
A   22
C9
A   23
C10
A   24
C14
A   25
C25
A   26
C26
A   27
N27
A   28
N28
A   29
N29
A   30
N30
A   31
N31
A   32
N32
A   33
N33
A   34
O34
A   35
CL1
M  END
>  <Id>  (36) 
4TY7_39F_A_301

>  <ChainId>  (36) 
A

>  <AsymId>  (36) 
B

>  <SeqNum>  (36) 
301

>  <Name>  (36) 
trans-N-{(1S)-1-[4-(3-amino-2H-indazol-6-yl)-5-chloro-1H-imidazol-2-yl]-2-phenylethyl}-4-(aminomethyl)cyclohexane-1-carboxamide

>  <SystematicName>  (36) 
4-(aminomethyl)-~{N}-[(1~{S})-1-[4-(3-azanyl-2~{H}-indazol-6-yl)-5-chloranyl-1~{H}-imidazol-2-yl]-2-phenyl-ethyl]cyclohexane-1-carboxamide

>  <Synonyms>  (36) 


>  <Type>  (36) 
NON-POLYMER

>  <Formula>  (36) 
C26 H30 Cl N7 O

>  <ObservedFormula>  (36) 
C26 Cl N7 O

>  <MolecularWeight>  (36) 
492.016

>  <ModifiedDate>  (36) 
2017-11-16

>  <Parent>  (36) 


>  <OneLetterCode>  (36) 


>  <SubcomponentList>  (36) 


>  <AmbiguousFlag>  (36) 
N

>  <InsertionCode>  (36) 


>  <InstanceId>  (36) 
4TY7_39F_A_301

>  <ChemCompId>  (36) 
39F

>  <PdbId>  (36) 
4TY7

>  <ResidueNumber>  (36) 
301

>  <InChI>  (36) 
InChI=1S/C26H30ClN7O/c27-23-22(18-10-11-19-20(13-18)33-34-24(19)29)31-25(32-23)21(12-15-4-2-1-3-5-15)30-26(35)17-8-6-16(14-28)7-9-17/h1-5,10-11,13,16-17,21H,6-9,12,14,28H2,(H,30,35)(H,31,32)(H3,29,33,34)/t16-,17-,21-/m0/s1

>  <InChIKey>  (36) 
IOLSRAXZCKDSPO-FIKGOQFSSA-N

>  <SMILES>  (36) 
c1ccc(cc1)C[C@@H](c2[nH]c(c(n2)c3ccc4c(c3)n[nH]c4N)Cl)NC(=O)C5CCC(CC5)CN

>  <MissingHeavyAtoms>  (36) 
0

>  <Model>  (36) 
1

>  <AltIds>  (36) 


>  <pKI>  (36) 
9.52

>  <ChemblID>  (36) 
-

>  <standardized_canonical_smiles>  (36) 
CC[C@@H](CCCCN)C(=O)N[C@@H](Cc1ccccc1)c1nc(-c2ccc3c(N)[nH]nc3c2)c(Cl)[nH]1

$$$$
5Q0D_9EY_A_301
     RDKit          3D

 41 45  0  0  0  0  0  0  0  0999 V2000
   37.7100  -17.0670   27.9770 C   0  0  0  0  0  0  0  0  0  0  0  0
   39.3210  -22.0690   27.7680 C   0  0  0  0  0  0  0  0  0  0  0  0
   39.7410  -20.9110   28.6950 C   0  0  0  0  0  0  0  0  0  0  0  0
   39.0270  -18.7060   29.4130 C   0  0  0  0  0  0  0  0  0  0  0  0
   40.1100  -23.3990   28.0280 C   0  0  0  0  0  0  0  0  0  0  0  0
   40.1920  -23.8910   29.5030 C   0  0  0  0  0  0  0  0  0  0  0  0
   41.2350  -20.7630   28.6700 C   0  0  0  0  0  0  0  0  0  0  0  0
   43.2680  -20.6740   27.8740 C   0  0  0  0  0  0  0  0  0  0  0  0
   48.7380  -22.0780   32.8530 C   0  0  0  0  0  0  0  0  0  0  0  0
   44.3760  -21.4180   30.1090 C   0  0  0  0  0  0  0  0  0  0  0  0
   33.8220  -14.0500   29.5580 Cl  0  0  0  0  0  0  0  0  0  0  0  0
   36.7570  -13.5610   26.8840 C   0  0  0  0  0  0  0  0  0  0  0  0
   35.6410  -13.3410   27.6810 C   0  0  0  0  0  0  0  0  0  0  0  0
   35.2190  -14.3340   28.5420 C   0  0  0  0  0  0  0  0  0  0  0  0
   35.8760  -15.5490   28.6220 C   0  0  0  0  0  0  0  0  0  0  0  0
   36.9970  -15.7910   27.8070 C   0  0  0  0  0  0  0  0  0  0  0  0
   37.4290  -14.7810   26.9310 C   0  0  0  0  0  0  0  0  0  0  0  0
   38.5330  -14.9950   26.0480 N   0  0  0  0  0  0  0  0  0  0  0  0
   38.6330  -14.9600   24.7140 C   0  0  0  0  0  0  0  0  0  0  0  0
   39.8520  -15.2550   24.3570 N   0  0  0  0  0  0  0  0  0  0  0  0
   40.5280  -15.4720   25.5120 N   0  0  0  0  0  0  0  0  0  0  0  0
   39.7500  -15.3240   26.5380 N   0  0  0  0  0  0  0  0  0  0  0  0
   38.2700  -17.4680   29.1170 C   0  0  0  0  0  0  0  0  0  0  0  0
   39.6830  -18.8360   30.4560 O   0  0  0  0  0  0  0  0  0  0  0  0
   39.0200  -19.6590   28.4530 N   0  0  0  0  0  0  0  0  0  0  0  0
   41.9530  -20.5340   27.5510 N   0  0  0  0  0  0  0  0  0  0  0  0
   43.2990  -20.9920   29.2030 C   0  0  0  0  0  0  0  0  0  0  0  0
   42.0150  -21.0220   29.6990 N   0  0  0  0  0  0  0  0  0  0  0  0
   45.5470  -20.6550   30.1600 C   0  0  0  0  0  0  0  0  0  0  0  0
   46.5710  -20.9810   31.0310 C   0  0  0  0  0  0  0  0  0  0  0  0
   46.4410  -22.0720   31.8910 C   0  0  0  0  0  0  0  0  0  0  0  0
   45.2920  -22.8600   31.8270 C   0  0  0  0  0  0  0  0  0  0  0  0
   44.2620  -22.5550   30.9470 C   0  0  0  0  0  0  0  0  0  0  0  0
   47.4450  -22.4970   32.8000 N   0  0  0  0  0  0  0  0  0  0  0  0
   49.2970  -21.3810   32.0330 O   0  0  0  0  0  0  0  0  0  0  0  0
   49.3250  -22.5590   33.9660 O   0  0  0  0  0  0  0  0  0  0  0  0
   50.7520  -22.3200   34.0890 C   0  0  0  0  0  0  0  0  0  0  0  0
   41.3990  -24.7810   29.8350 C   0  0  0  0  0  0  0  0  0  0  0  0
   42.7350  -24.0660   29.7410 C   0  0  0  0  0  0  0  0  0  0  0  0
   43.1160  -23.4020   30.8580 N   0  0  0  0  0  0  0  0  0  0  0  0
   43.3890  -24.0490   28.7000 O   0  0  0  0  0  0  0  0  0  0  0  0
 16  1  1  0
 23  1  2  0
  3  2  1  0
  5  2  1  0
  7  3  1  0
 25  3  1  0
 23  4  1  0
 24  4  2  0
 25  4  1  0
  6  5  1  0
 38  6  1  0
 26  7  1  0
 28  7  2  0
 26  8  1  0
 27  8  2  0
 34  9  1  0
 35  9  2  0
 36  9  1  0
 27 10  1  0
 29 10  1  0
 33 10  2  0
 14 11  1  0
 13 12  2  0
 17 12  1  0
 14 13  1  0
 15 14  2  0
 16 15  1  0
 17 16  2  0
 18 17  1  0
 19 18  1  0
 22 18  1  0
 20 19  2  0
 21 20  1  0
 22 21  2  0
 28 27  1  0
 30 29  2  0
 31 30  1  0
 32 31  2  0
 34 31  1  0
 33 32  1  0
 40 33  1  0
 37 36  1  0
 39 38  1  0
 40 39  1  0
 41 39  2  0
A    1
C13
A    2
C18
A    3
C17
A    4
C15
A    5
C19
A    6
C20
A    7
C22
A    8
C24
A    9
C34
A   10
C27
A   11
CL1
A   12
C2
A   13
C3
A   14
C4
A   15
C5
A   16
C6
A   17
C7
A   18
N8
A   19
C9
A   20
N10
A   21
N11
A   22
N12
A   23
C14
A   24
O16
A   25
N21
A   26
N23
A   27
C25
A   28
N26
A   29
C28
A   30
C29
A   31
C30
A   32
C31
A   33
C32
A   34
N33
A   35
O35
A   36
O36
A   37
C37
A   38
C38
A   39
C39
A   40
N40
A   41
O41
M  END
>  <Id>  (37) 
5Q0D_9EY_A_301

>  <ChainId>  (37) 
A

>  <AsymId>  (37) 
B

>  <SeqNum>  (37) 
301

>  <Name>  (37) 
methyl [(7S)-7-({(2E)-3-[5-chloro-2-(1H-tetrazol-1-yl)phenyl]prop-2-enoyl}amino)-2-oxo-1,2,3,4,5,6,7,9-octahydro-11,8-(azeno)-1,9-benzodiazacyclotridecin-14-yl]carbamate

>  <SystematicName>  (37) 
methyl ~{N}-[(14~{S})-14-[[(~{E})-3-[5-chloranyl-2-(1,2,3,4-tetrazol-1-yl)phenyl]prop-2-enoyl]amino]-9-oxidanylidene-8,16,18-triazatricyclo[13.2.1.0^{2,7}]octadeca-1(17),2,4,6,15(18)-pentaen-5-yl]carbamate

>  <Synonyms>  (37) 


>  <Type>  (37) 
NON-POLYMER

>  <Formula>  (37) 
C27 H26 Cl N9 O4

>  <ObservedFormula>  (37) 
C27 Cl N9 O4

>  <MolecularWeight>  (37) 
576.006

>  <ModifiedDate>  (37) 
2017-07-07

>  <Parent>  (37) 


>  <OneLetterCode>  (37) 


>  <SubcomponentList>  (37) 


>  <AmbiguousFlag>  (37) 
N

>  <InsertionCode>  (37) 


>  <InstanceId>  (37) 
5Q0D_9EY_A_301

>  <ChemCompId>  (37) 
9EY

>  <PdbId>  (37) 
5Q0D

>  <ResidueNumber>  (37) 
301

>  <InChI>  (37) 
InChI=1S/C27H26ClN9O4/c1-41-27(40)31-18-8-9-19-21(13-18)33-24(38)5-3-2-4-20(26-29-14-22(19)34-26)32-25(39)11-6-16-12-17(28)7-10-23(16)37-15-30-35-36-37/h6-15,20H,2-5H2,1H3,(H,29,34)(H,31,40)(H,32,39)(H,33,38)/b11-6+/t20-/m0/s1

>  <InChIKey>  (37) 
RUNFYOCZSWNWFH-OJWOGGGRSA-N

>  <SMILES>  (37) 
COC(=O)Nc1ccc-2c(c1)NC(=O)CCCC[C@@H](c3[nH]cc2n3)NC(=O)/C=C/c4cc(ccc4n5cnnn5)Cl

>  <MissingHeavyAtoms>  (37) 
0

>  <Model>  (37) 
1

>  <AltIds>  (37) 


>  <pKI>  (37) 
9.0

>  <ChemblID>  (37) 
-

>  <standardized_canonical_smiles>  (37) 
COC(=O)Nc1ccc2c(c1)NC(=O)CCCC[C@H](NC(=O)/C=C/c1cc(Cl)ccc1-n1cnnn1)c1nc-2c[nH]1

$$$$
