2BRB_PFQ_A_1277
     RDKit          3D

 25 28  0  0  0  0  0  0  0  0999 V2000
   14.3110    0.2600    9.6510 C   0  0  0  0  0  0  0  0  0  0  0  0
   18.3220   -1.7000    9.2930 C   0  0  0  0  0  0  0  0  0  0  0  0
   19.6470   -1.9520    8.9490 C   0  0  0  0  0  0  0  0  0  0  0  0
   20.3240   -3.1340    9.2430 C   0  0  0  0  0  0  0  0  0  0  0  0
   21.6530   -3.2690    8.8360 C   0  0  0  0  0  0  0  0  0  0  0  0
   22.2900   -2.2420    8.1380 C   0  0  0  0  0  0  0  0  0  0  0  0
   21.6140   -1.0560    7.8470 C   0  0  0  0  0  0  0  0  0  0  0  0
   20.2910   -0.9400    8.2410 C   0  0  0  0  0  0  0  0  0  0  0  0
   16.9690   -4.8120   10.0740 C   0  0  0  0  0  0  0  0  0  0  0  0
   17.0350   -6.0670   10.6850 C   0  0  0  0  0  0  0  0  0  0  0  0
   17.6450   -6.1780   11.9360 C   0  0  0  0  0  0  0  0  0  0  0  0
   18.1740   -5.0270   12.5490 C   0  0  0  0  0  0  0  0  0  0  0  0
   15.5150    0.4240    9.1270 N   0  0  0  0  0  0  0  0  0  0  0  0
   16.4650   -0.5070    9.2980 C   0  0  0  0  0  0  0  0  0  0  0  0
   17.7520   -0.5450    8.8630 O   0  0  0  0  0  0  0  0  0  0  0  0
   16.2030   -1.6630   10.0320 C   0  0  0  0  0  0  0  0  0  0  0  0
   14.5520   -2.8610   11.2950 N   0  0  0  0  0  0  0  0  0  0  0  0
   14.9180   -1.7990   10.5690 C   0  0  0  0  0  0  0  0  0  0  0  0
   14.0200   -0.8210   10.3510 N   0  0  0  0  0  0  0  0  0  0  0  0
   18.1030   -3.7740   11.9320 C   0  0  0  0  0  0  0  0  0  0  0  0
   17.3790   -2.4230   10.0340 C   0  0  0  0  0  0  0  0  0  0  0  0
   17.5000   -3.6660   10.6770 C   0  0  0  0  0  0  0  0  0  0  0  0
   12.6900   -2.5010   12.8800 C   0  0  0  0  0  0  0  0  0  0  0  0
   13.1250   -3.1390   11.5520 C   0  0  0  0  0  0  0  0  0  0  0  0
   12.1850   -1.1800   12.6450 O   0  0  0  0  0  0  0  0  0  0  0  0
 13  1  2  0
 19  1  1  0
  3  2  1  0
 15  2  1  0
 21  2  2  0
  4  3  2  0
  8  3  1  0
  5  4  1  0
  6  5  2  0
  7  6  1  0
  8  7  2  0
 10  9  2  0
 22  9  1  0
 11 10  1  0
 12 11  2  0
 20 12  1  0
 14 13  1  0
 15 14  1  0
 16 14  2  0
 18 16  1  0
 21 16  1  0
 18 17  1  0
 24 17  1  0
 19 18  2  0
 22 20  2  0
 22 21  1  0
 24 23  1  0
 25 23  1  0
A    1
C2
A    2
C10
A    3
C11
A    4
C12
A    5
C13
A    6
C14
A    7
C15
A    8
C16
A    9
C19
A   10
C20
A   11
C21
A   12
C22
A   13
N1
A   14
C6
A   15
O6
A   16
C5
A   17
N9
A   18
C4
A   19
N3
A   20
C17
A   21
C1
A   22
C18
A   23
C23
A   24
C8
A   25
O24
M  END
>  <Id>  (1) 
2BRB_PFQ_A_1277

>  <ChainId>  (1) 
A

>  <AsymId>  (1) 
B

>  <SeqNum>  (1) 
1277

>  <Name>  (1) 
2-[(5,6-DIPHENYLFURO[2,3-D]PYRIMIDIN-4-YL)AMINO]ETHANOL

>  <SystematicName>  (1) 
2-[(5,6-diphenylfuro[3,2-e]pyrimidin-4-yl)amino]ethanol

>  <Synonyms>  (1) 


>  <Type>  (1) 
NON-POLYMER

>  <Formula>  (1) 
C20 H17 N3 O2

>  <ObservedFormula>  (1) 
C20 N3 O2

>  <MolecularWeight>  (1) 
331.368

>  <ModifiedDate>  (1) 
2011-06-04

>  <Parent>  (1) 


>  <OneLetterCode>  (1) 


>  <SubcomponentList>  (1) 


>  <AmbiguousFlag>  (1) 
N

>  <InsertionCode>  (1) 


>  <InstanceId>  (1) 
2BRB_PFQ_A_1277

>  <ChemCompId>  (1) 
PFQ

>  <PdbId>  (1) 
2BRB

>  <ResidueNumber>  (1) 
1277

>  <InChI>  (1) 
InChI=1S/C20H17N3O2/c24-12-11-21-19-17-16(14-7-3-1-4-8-14)18(15-9-5-2-6-10-15)25-20(17)23-13-22-19/h1-10,13,24H,11-12H2,(H,21,22,23)

>  <InChIKey>  (1) 
UQHINZSKNAAVOZ-UHFFFAOYSA-N

>  <SMILES>  (1) 
c1ccc(cc1)c2c3c(ncnc3oc2c4ccccc4)NCCO

>  <MissingHeavyAtoms>  (1) 
0

>  <Model>  (1) 
1

>  <AltIds>  (1) 


>  <pKI>  (1) 
4.86

>  <ChemblID>  (1) 
CHEMBL189434

>  <standardized_canonical_smiles>  (1) 
OCCNc1ncnc2oc(-c3ccccc3)c(-c3ccccc3)c12

$$$$
2BRM_DFZ_A_1275
     RDKit          3D

 25 28  0  0  0  0  0  0  0  0999 V2000
    6.0690   -2.2850   19.4910 C   0  0  0  0  0  0  0  0  0  0  0  0
    2.0930   -4.2810   19.7290 C   0  0  0  0  0  0  0  0  0  0  0  0
    0.7620   -4.6430   19.9740 C   0  0  0  0  0  0  0  0  0  0  0  0
    0.2530   -5.9090   19.7010 C   0  0  0  0  0  0  0  0  0  0  0  0
   -1.0810   -6.2130   19.9650 C   0  0  0  0  0  0  0  0  0  0  0  0
   -1.9300   -5.2530   20.5090 C   0  0  0  0  0  0  0  0  0  0  0  0
   -1.4340   -3.9840   20.7860 C   0  0  0  0  0  0  0  0  0  0  0  0
   -0.0980   -3.6880   20.5170 C   0  0  0  0  0  0  0  0  0  0  0  0
    2.1820   -6.3430   17.1790 C   0  0  0  0  0  0  0  0  0  0  0  0
    2.0550   -7.5920   16.5670 C   0  0  0  0  0  0  0  0  0  0  0  0
    2.6560   -8.7200   17.1260 C   0  0  0  0  0  0  0  0  0  0  0  0
    3.3880   -8.5960   18.3040 C   0  0  0  0  0  0  0  0  0  0  0  0
    4.8520   -2.1560   19.9810 N   0  0  0  0  0  0  0  0  0  0  0  0
    3.9260   -3.0990   19.7700 C   0  0  0  0  0  0  0  0  0  0  0  0
    4.2350   -4.2300   19.0210 C   0  0  0  0  0  0  0  0  0  0  0  0
    5.9720   -5.3620   17.7820 N   0  0  0  0  0  0  0  0  0  0  0  0
    5.5390   -4.3340   18.5170 C   0  0  0  0  0  0  0  0  0  0  0  0
    6.4120   -3.3440   18.7820 N   0  0  0  0  0  0  0  0  0  0  0  0
    2.6610   -3.1610   20.1650 N   0  0  0  0  0  0  0  0  0  0  0  0
    3.5100   -7.3500   18.9160 C   0  0  0  0  0  0  0  0  0  0  0  0
    3.0590   -4.9830   18.9950 C   0  0  0  0  0  0  0  0  0  0  0  0
    2.9100   -6.2190   18.3600 C   0  0  0  0  0  0  0  0  0  0  0  0
    7.5920   -4.3990   16.1920 C   0  0  0  0  0  0  0  0  0  0  0  0
    7.3640   -5.4350   17.3020 C   0  0  0  0  0  0  0  0  0  0  0  0
    8.4060   -3.3250   16.6890 O   0  0  0  0  0  0  0  0  0  0  0  0
 13  1  2  0
 18  1  1  0
  3  2  1  0
 19  2  1  0
 21  2  2  0
  4  3  2  0
  8  3  1  0
  5  4  1  0
  6  5  2  0
  7  6  1  0
  8  7  2  0
 10  9  2  0
 22  9  1  0
 11 10  1  0
 12 11  2  0
 20 12  1  0
 14 13  1  0
 15 14  2  0
 19 14  1  0
 17 15  1  0
 21 15  1  0
 17 16  1  0
 24 16  1  0
 18 17  2  0
 22 20  2  0
 22 21  1  0
 24 23  1  0
 25 23  1  0
A    1
C2
A    2
C10
A    3
C11
A    4
C12
A    5
C13
A    6
C14
A    7
C15
A    8
C16
A    9
C19
A   10
C20
A   11
C21
A   12
C22
A   13
N1
A   14
C6
A   15
C5
A   16
N9
A   17
C4
A   18
N3
A   19
N90
A   20
C17
A   21
C1
A   22
C18
A   23
C23
A   24
C8
A   25
O24
M  END
>  <Id>  (2) 
2BRM_DFZ_A_1275

>  <ChainId>  (2) 
A

>  <AsymId>  (2) 
B

>  <SeqNum>  (2) 
1275

>  <Name>  (2) 
3-AMINO-3-BENZYL-[4.3.0]BICYCLO-1,6-DIAZANONAN-2-ONE

>  <SystematicName>  (2) 
2-[(5,6-diphenyl-7H-pyrrolo[3,2-e]pyrimidin-4-yl)amino]ethanol

>  <Synonyms>  (2) 


>  <Type>  (2) 
NON-POLYMER

>  <Formula>  (2) 
C20 H18 N4 O

>  <ObservedFormula>  (2) 
C20 N4 O

>  <MolecularWeight>  (2) 
330.383

>  <ModifiedDate>  (2) 
2011-06-04

>  <Parent>  (2) 


>  <OneLetterCode>  (2) 


>  <SubcomponentList>  (2) 


>  <AmbiguousFlag>  (2) 
N

>  <InsertionCode>  (2) 


>  <InstanceId>  (2) 
2BRM_DFZ_A_1275

>  <ChemCompId>  (2) 
DFZ

>  <PdbId>  (2) 
2BRM

>  <ResidueNumber>  (2) 
1275

>  <InChI>  (2) 
InChI=1S/C20H18N4O/c25-12-11-21-19-17-16(14-7-3-1-4-8-14)18(15-9-5-2-6-10-15)24-20(17)23-13-22-19/h1-10,13,25H,11-12H2,(H2,21,22,23,24)

>  <InChIKey>  (2) 
MPJYGQHMIFDQIN-UHFFFAOYSA-N

>  <SMILES>  (2) 
c1ccc(cc1)c2c3c([nH]c2c4ccccc4)ncnc3NCCO

>  <MissingHeavyAtoms>  (2) 
0

>  <Model>  (2) 
1

>  <AltIds>  (2) 


>  <pKI>  (2) 
5.89

>  <ChemblID>  (2) 
CHEMBL366312

>  <standardized_canonical_smiles>  (2) 
OCCNc1ncnc2[nH]c(-c3ccccc3)c(-c3ccccc3)c12

$$$$
2BR1_PFP_A_1277
     RDKit          3D

 29 32  0  0  0  0  0  0  0  0999 V2000
   18.9620   -8.0070   12.9180 C   0  0  0  0  0  0  0  0  0  0  0  0
   17.6310   -7.6670   12.5680 O   0  0  0  0  0  0  0  0  0  0  0  0
   17.6080   -6.4090   11.9280 C   0  0  0  0  0  0  0  0  0  0  0  0
   18.3940   -5.3380   12.4250 C   0  0  0  0  0  0  0  0  0  0  0  0
   18.3210   -4.0440   11.7950 C   0  0  0  0  0  0  0  0  0  0  0  0
   16.7450   -6.1960   10.8440 C   0  0  0  0  0  0  0  0  0  0  0  0
   16.6770   -4.9250   10.2200 C   0  0  0  0  0  0  0  0  0  0  0  0
   17.4810   -3.8550   10.6780 C   0  0  0  0  0  0  0  0  0  0  0  0
   17.3310   -2.4950   10.0540 C   0  0  0  0  0  0  0  0  0  0  0  0
   16.1970   -1.8060    9.9290 C   0  0  0  0  0  0  0  0  0  0  0  0
   14.9220   -1.9560   10.4670 C   0  0  0  0  0  0  0  0  0  0  0  0
   14.6190   -3.0080   11.2120 N   0  0  0  0  0  0  0  0  0  0  0  0
   13.2030   -3.2550   11.6010 C   0  0  0  0  0  0  0  0  0  0  0  0
   12.5240   -2.3810   12.7310 C   0  0  0  0  0  0  0  0  0  0  0  0
   12.1040   -0.9840   12.4450 O   0  0  0  0  0  0  0  0  0  0  0  0
   13.9850   -1.0330   10.2090 N   0  0  0  0  0  0  0  0  0  0  0  0
   14.2790    0.0380    9.4700 C   0  0  0  0  0  0  0  0  0  0  0  0
   15.5230    0.2070    8.9640 N   0  0  0  0  0  0  0  0  0  0  0  0
   16.4790   -0.7010    9.1890 C   0  0  0  0  0  0  0  0  0  0  0  0
   17.7140   -0.7390    8.8380 O   0  0  0  0  0  0  0  0  0  0  0  0
   18.2670   -1.8180    9.2740 C   0  0  0  0  0  0  0  0  0  0  0  0
   19.5820   -2.1570    9.0700 C   0  0  0  0  0  0  0  0  0  0  0  0
   20.4510   -1.2110    8.5100 C   0  0  0  0  0  0  0  0  0  0  0  0
   21.7700   -1.5370    8.2650 C   0  0  0  0  0  0  0  0  0  0  0  0
   22.2320   -2.8040    8.5440 C   0  0  0  0  0  0  0  0  0  0  0  0
   23.5290   -3.1180    8.3000 O   0  0  0  0  0  0  0  0  0  0  0  0
   24.5290   -2.0490    8.1770 C   0  0  0  0  0  0  0  0  0  0  0  0
   21.3610   -3.7670    9.0800 C   0  0  0  0  0  0  0  0  0  0  0  0
   20.0290   -3.4400    9.3210 C   0  0  0  0  0  0  0  0  0  0  0  0
  2  1  1  0
  3  2  1  0
  4  3  2  0
  6  3  1  0
  5  4  1  0
  8  5  2  0
  7  6  2  0
  8  7  1  0
  9  8  1  0
 10  9  1  0
 21  9  2  0
 11 10  2  0
 19 10  1  0
 12 11  1  0
 16 11  1  0
 13 12  1  0
 14 13  1  0
 15 14  1  0
 17 16  2  0
 18 17  1  0
 19 18  2  0
 20 19  1  0
 21 20  1  0
 22 21  1  0
 23 22  2  0
 29 22  1  0
 24 23  1  0
 25 24  2  0
 26 25  1  0
 28 25  1  0
 27 26  1  0
 29 28  2  0
A    1
CAB
A    2
OAS
A    3
CAV
A    4
CAG
A    5
CAK
A    6
CAF
A    7
CAJ
A    8
CAX
A    9
CBA
A   10
CBC
A   11
CAY
A   12
NAQ
A   13
CAN
A   14
CAM
A   15
OAC
A   16
NAO
A   17
CAL
A   18
NAP
A   19
CBB
A   20
OAT
A   21
CAZ
A   22
CAW
A   23
CAH
A   24
CAD
A   25
CAU
A   26
OAR
A   27
CAA
A   28
CAE
A   29
CAI
M  END
>  <Id>  (3) 
2BR1_PFP_A_1277

>  <ChainId>  (3) 
A

>  <AsymId>  (3) 
B

>  <SeqNum>  (3) 
1277

>  <Name>  (3) 
2-[5,6-BIS-(4-METHOXY-PHENYL)-FURO[2,3-D]PYRIMIDIN-4-YLAMINO]-ETHANOL

>  <SystematicName>  (3) 
2-[[5,6-bis(4-methoxyphenyl)furo[3,2-e]pyrimidin-4-yl]amino]ethanol

>  <Synonyms>  (3) 


>  <Type>  (3) 
NON-POLYMER

>  <Formula>  (3) 
C22 H21 N3 O4

>  <ObservedFormula>  (3) 
C22 N3 O4

>  <MolecularWeight>  (3) 
391.42

>  <ModifiedDate>  (3) 
2011-06-04

>  <Parent>  (3) 


>  <OneLetterCode>  (3) 


>  <SubcomponentList>  (3) 


>  <AmbiguousFlag>  (3) 
N

>  <InsertionCode>  (3) 


>  <InstanceId>  (3) 
2BR1_PFP_A_1277

>  <ChemCompId>  (3) 
PFP

>  <PdbId>  (3) 
2BR1

>  <ResidueNumber>  (3) 
1277

>  <InChI>  (3) 
InChI=1S/C22H21N3O4/c1-27-16-7-3-14(4-8-16)18-19-21(23-11-12-26)24-13-25-22(19)29-20(18)15-5-9-17(28-2)10-6-15/h3-10,13,26H,11-12H2,1-2H3,(H,23,24,25)

>  <InChIKey>  (3) 
ARBUGBBNEFAECO-UHFFFAOYSA-N

>  <SMILES>  (3) 
COc1ccc(cc1)c2c3c(ncnc3oc2c4ccc(cc4)OC)NCCO

>  <MissingHeavyAtoms>  (3) 
0

>  <Model>  (3) 
1

>  <AltIds>  (3) 


>  <pKI>  (3) 
5.14

>  <ChemblID>  (3) 
CHEMBL190201

>  <standardized_canonical_smiles>  (3) 
COc1ccc(-c2oc3ncnc(NCCO)c3c2-c2ccc(OC)cc2)cc1

$$$$
2AYP_43A_A_270
     RDKit          3D

 25 28  0  0  0  0  0  0  0  0999 V2000
   11.8800   -3.4810   15.0870 C   0  0  0  0  0  0  0  0  0  0  0  0
   11.1140   -2.2090   15.1650 C   0  0  0  0  0  0  0  0  0  0  0  0
    9.7490   -2.2520   15.7760 C   0  0  0  0  0  0  0  0  0  0  0  0
    9.1680   -3.4930   16.2880 C   0  0  0  0  0  0  0  0  0  0  0  0
    9.9650   -4.7120   16.1830 C   0  0  0  0  0  0  0  0  0  0  0  0
   11.2930   -4.7110   15.5960 C   0  0  0  0  0  0  0  0  0  0  0  0
   13.1580   -3.5130   14.5320 O   0  0  0  0  0  0  0  0  0  0  0  0
   11.7880   -1.0420   14.6300 O   0  0  0  0  0  0  0  0  0  0  0  0
   11.7100    0.2220   15.2860 C   0  0  0  0  0  0  0  0  0  0  0  0
    7.7800   -3.5120   16.9090 C   0  0  0  0  0  0  0  0  0  0  0  0
    7.3700   -2.4480   17.8560 C   0  0  0  0  0  0  0  0  0  0  0  0
    6.0340   -2.4760   18.4390 C   0  0  0  0  0  0  0  0  0  0  0  0
    5.1020   -3.5150   18.1210 C   0  0  0  0  0  0  0  0  0  0  0  0
    5.4640   -4.5820   17.1950 C   0  0  0  0  0  0  0  0  0  0  0  0
    6.8040   -4.5680   16.6000 C   0  0  0  0  0  0  0  0  0  0  0  0
    5.4650   -1.6090   19.3160 N   0  0  0  0  0  0  0  0  0  0  0  0
    4.1910   -1.9840   19.6200 C   0  0  0  0  0  0  0  0  0  0  0  0
    3.8210   -3.2850   18.8580 C   0  0  0  0  0  0  0  0  0  0  0  0
    3.4730   -1.3460   20.3940 O   0  0  0  0  0  0  0  0  0  0  0  0
    2.7120   -4.0880   18.7820 C   0  0  0  0  0  0  0  0  0  0  0  0
    1.3370   -3.7400   19.2330 C   0  0  0  0  0  0  0  0  0  0  0  0
    1.0230   -2.7190   19.7800 N   0  0  0  0  0  0  0  0  0  0  0  0
   -0.4070   -2.6860   20.0990 C   0  0  0  0  0  0  0  0  0  0  0  0
   -0.8870   -3.8410   19.6560 C   0  0  0  0  0  0  0  0  0  0  0  0
    0.2590   -4.5280   19.0890 C   0  0  0  0  0  0  0  0  0  0  0  0
  2  1  2  0
  6  1  1  0
  7  1  1  0
  3  2  1  0
  8  2  1  0
  4  3  2  0
  5  4  1  0
 10  4  1  0
  6  5  2  0
  9  8  1  0
 11 10  2  0
 15 10  1  0
 12 11  1  0
 13 12  2  0
 16 12  1  0
 14 13  1  0
 18 13  1  0
 15 14  2  0
 17 16  1  0
 18 17  1  0
 19 17  2  0
 20 18  2  0
 21 20  1  0
 22 21  1  0
 25 21  2  0
 23 22  1  0
 24 23  2  0
 25 24  1  0
A    1
C1
A    2
C2
A    3
C3
A    4
C4
A    5
C5
A    6
C6
A    7
O7
A    8
O8
A    9
C9
A   10
C10
A   11
C11
A   12
C12
A   13
C13
A   14
C14
A   15
C15
A   16
N16
A   17
C17
A   18
C18
A   19
O19
A   20
C20
A   21
C21
A   22
N22
A   23
C23
A   24
C24
A   25
C25
M  END
>  <Id>  (4) 
2AYP_43A_A_270

>  <ChainId>  (4) 
A

>  <AsymId>  (4) 
B

>  <SeqNum>  (4) 
270

>  <Name>  (4) 
(3Z)-6-(4-HYDROXY-3-METHOXYPHENYL)-3-(1H-PYRROL-2-YLMETHYLENE)-1,3-DIHYDRO-2H-INDOL-2-ONE

>  <SystematicName>  (4) 
6-(4-hydroxy-3-methoxy-phenyl)-3-(1H-pyrrol-2-ylmethylidene)-1H-indol-2-one

>  <Synonyms>  (4) 


>  <Type>  (4) 
NON-POLYMER

>  <Formula>  (4) 
C20 H16 N2 O3

>  <ObservedFormula>  (4) 
C20 N2 O3

>  <MolecularWeight>  (4) 
332.353

>  <ModifiedDate>  (4) 
2011-06-04

>  <Parent>  (4) 


>  <OneLetterCode>  (4) 


>  <SubcomponentList>  (4) 


>  <AmbiguousFlag>  (4) 
N

>  <InsertionCode>  (4) 


>  <InstanceId>  (4) 
2AYP_43A_A_270

>  <ChemCompId>  (4) 
43A

>  <PdbId>  (4) 
2AYP

>  <ResidueNumber>  (4) 
270

>  <InChI>  (4) 
InChI=1S/C20H16N2O3/c1-25-19-10-13(5-7-18(19)23)12-4-6-15-16(11-14-3-2-8-21-14)20(24)22-17(15)9-12/h2-11,21,23H,1H3,(H,22,24)/b16-11-

>  <InChIKey>  (4) 
AYSXURJZVXBSRV-WJDWOHSUSA-N

>  <SMILES>  (4) 
COc1cc(ccc1O)c2ccc3c(c2)NC(=O)C3=Cc4ccc[nH]4

>  <MissingHeavyAtoms>  (4) 
0

>  <Model>  (4) 
1

>  <AltIds>  (4) 


>  <pKI>  (4) 
7.5

>  <ChemblID>  (4) 
CHEMBL202930

>  <standardized_canonical_smiles>  (4) 
COc1cc(-c2ccc3c(c2)NC(=O)/C3=C\c2ccc[nH]2)ccc1O

$$$$
2YWP_A42_A_1
     RDKit          3D

 23 24  0  0  0  0  0  0  0  0999 V2000
   -8.2180    9.1210  -16.5840 C   0  0  0  0  0  0  0  0  0  0  0  0
   -8.4960   10.4450  -16.8740 N   0  0  0  0  0  0  0  0  0  0  0  0
   -7.5890   11.1700  -17.6270 C   0  0  0  0  0  0  0  0  0  0  0  0
   -6.3680   10.5790  -18.1140 C   0  0  0  0  0  0  0  0  0  0  0  0
   -6.0850    9.2320  -17.8190 N   0  0  0  0  0  0  0  0  0  0  0  0
   -7.0040    8.5030  -17.0580 C   0  0  0  0  0  0  0  0  0  0  0  0
   -9.1410    8.3950  -15.8240 C   0  0  0  0  0  0  0  0  0  0  0  0
   -9.9500    7.8050  -15.2330 N   0  0  0  0  0  0  0  0  0  0  0  0
   -5.4610   11.3170  -18.8640 N   0  0  0  0  0  0  0  0  0  0  0  0
   -4.2900   10.9980  -19.5030 C   0  0  0  0  0  0  0  0  0  0  0  0
   -3.8930   11.7460  -20.3940 O   0  0  0  0  0  0  0  0  0  0  0  0
   -3.6650    9.7930  -19.1740 N   0  0  0  0  0  0  0  0  0  0  0  0
   -2.3070    9.4070  -19.2470 C   0  0  0  0  0  0  0  0  0  0  0  0
   -1.3250   10.1140  -20.0850 C   0  0  0  0  0  0  0  0  0  0  0  0
    0.0460    9.7020  -20.1450 C   0  0  0  0  0  0  0  0  0  0  0  0
    0.5260    8.5640  -19.3860 C   0  0  0  0  0  0  0  0  0  0  0  0
   -0.4380    7.8670  -18.5580 C   0  0  0  0  0  0  0  0  0  0  0  0
   -1.8370    8.2590  -18.4750 C   0  0  0  0  0  0  0  0  0  0  0  0
   -2.5680    7.4170  -17.6020 O   0  0  0  0  0  0  0  0  0  0  0  0
   -3.5290    6.4780  -18.0800 C   0  0  0  0  0  0  0  0  0  0  0  0
    1.8950    8.1970  -19.4790 O   0  0  0  0  0  0  0  0  0  0  0  0
    2.2220    7.0150  -20.2130 C   0  0  0  0  0  0  0  0  0  0  0  0
    1.1210   10.6200  -21.1700 Cl  0  0  0  0  0  0  0  0  0  0  0  0
  2  1  2  0
  6  1  1  0
  7  1  1  0
  3  2  1  0
  4  3  2  0
  5  4  1  0
  9  4  1  0
  6  5  2  0
  8  7  3  0
 10  9  1  0
 11 10  2  0
 12 10  1  0
 13 12  1  0
 14 13  2  0
 18 13  1  0
 15 14  1  0
 16 15  2  0
 23 15  1  0
 17 16  1  0
 21 16  1  0
 18 17  2  0
 19 18  1  0
 20 19  1  0
 22 21  1  0
A    1
C1
A    2
N2
A    3
C3
A    4
C4
A    5
N5
A    6
C6
A    7
C7
A    8
N8
A    9
N9
A   10
C10
A   11
O11
A   12
N12
A   13
C13
A   14
C14
A   15
C15
A   16
C16
A   17
C17
A   18
C18
A   19
O19
A   20
C20
A   21
O21
A   22
C22
A   23
CL1
M  END
>  <Id>  (5) 
2YWP_A42_A_1

>  <ChainId>  (5) 
A

>  <AsymId>  (5) 
B

>  <SeqNum>  (5) 
1

>  <Name>  (5) 
1-(5-CHLORO-2,4-DIMETHOXYPHENYL)-3-(5-CYANOPYRAZIN-2-YL)UREA

>  <SystematicName>  (5) 
3-(5-chloro-2,4-dimethoxy-phenyl)-1-(5-cyanopyrazin-2-yl)urea

>  <Synonyms>  (5) 


>  <Type>  (5) 
NON-POLYMER

>  <Formula>  (5) 
C14 H12 Cl N5 O3

>  <ObservedFormula>  (5) 
C14 Cl N5 O3

>  <MolecularWeight>  (5) 
333.73

>  <ModifiedDate>  (5) 
2011-06-04

>  <Parent>  (5) 


>  <OneLetterCode>  (5) 


>  <SubcomponentList>  (5) 


>  <AmbiguousFlag>  (5) 


>  <InsertionCode>  (5) 


>  <InstanceId>  (5) 
2YWP_A42_A_1

>  <ChemCompId>  (5) 
A42

>  <PdbId>  (5) 
2YWP

>  <ResidueNumber>  (5) 
1

>  <InChI>  (5) 
InChI=1S/C14H12ClN5O3/c1-22-11-4-12(23-2)10(3-9(11)15)19-14(21)20-13-7-17-8(5-16)6-18-13/h3-4,6-7H,1-2H3,(H2,18,19,20,21)

>  <InChIKey>  (5) 
URQYPXQXSVUVRG-UHFFFAOYSA-N

>  <SMILES>  (5) 
COc1cc(c(cc1NC(=O)Nc2cnc(cn2)C#N)Cl)OC

>  <MissingHeavyAtoms>  (5) 
0

>  <Model>  (5) 
1

>  <AltIds>  (5) 


>  <pKI>  (5) 
8.0

>  <ChemblID>  (5) 
CHEMBL207994

>  <standardized_canonical_smiles>  (5) 
COc1cc(OC)c(NC(=O)Nc2cnc(C#N)cn2)cc1Cl

$$$$
2E9U_A25_A_1001
     RDKit          3D

 24 26  0  0  0  0  0  0  0  0999 V2000
   -0.7220    8.0620  -18.4090 C   0  0  0  0  0  0  0  0  0  0  0  0
   -2.0890    8.4990  -18.2990 C   0  0  0  0  0  0  0  0  0  0  0  0
   -2.5220    9.6350  -19.0550 C   0  0  0  0  0  0  0  0  0  0  0  0
   -1.5840   10.3100  -19.9000 C   0  0  0  0  0  0  0  0  0  0  0  0
   -0.2530    9.8530  -19.9820 C   0  0  0  0  0  0  0  0  0  0  0  0
    0.1910    8.7380  -19.2490 C   0  0  0  0  0  0  0  0  0  0  0  0
    0.8580   10.6870  -21.0100 Cl  0  0  0  0  0  0  0  0  0  0  0  0
   -3.0670    7.8880  -17.4890 O   0  0  0  0  0  0  0  0  0  0  0  0
   -2.6230    7.1160  -16.3810 C   0  0  0  0  0  0  0  0  0  0  0  0
   -3.8570   10.0630  -18.9460 N   0  0  0  0  0  0  0  0  0  0  0  0
   -4.4910   11.0210  -19.7270 C   0  0  0  0  0  0  0  0  0  0  0  0
   -5.7980   11.2770  -19.4340 N   0  0  0  0  0  0  0  0  0  0  0  0
   -3.9380   11.6280  -20.6380 O   0  0  0  0  0  0  0  0  0  0  0  0
   -6.6400   10.7530  -18.4770 C   0  0  0  0  0  0  0  0  0  0  0  0
   -6.3130    9.5120  -17.9960 N   0  0  0  0  0  0  0  0  0  0  0  0
   -7.1220    8.9440  -17.0440 C   0  0  0  0  0  0  0  0  0  0  0  0
   -8.2790    9.6390  -16.5680 C   0  0  0  0  0  0  0  0  0  0  0  0
   -8.6090   10.8730  -17.0400 N   0  0  0  0  0  0  0  0  0  0  0  0
   -7.7980   11.4260  -17.9880 C   0  0  0  0  0  0  0  0  0  0  0  0
   -6.7120    7.6720  -16.6140 O   0  0  0  0  0  0  0  0  0  0  0  0
   -6.7320    7.3930  -15.2070 C   0  0  0  0  0  0  0  0  0  0  0  0
   -5.4230    7.8650  -14.5490 C   0  0  0  0  0  0  0  0  0  0  0  0
   -3.7500    6.2040  -15.9100 C   0  0  0  0  0  0  0  0  0  0  0  0
   -4.3770    6.7850  -14.6370 C   0  0  0  0  0  0  0  0  0  0  0  0
  2  1  2  0
  6  1  1  0
  3  2  1  0
  8  2  1  0
  4  3  2  0
 10  3  1  0
  5  4  1  0
  6  5  2  0
  7  5  1  0
  9  8  1  0
 23  9  1  0
 11 10  1  0
 12 11  1  0
 13 11  2  0
 14 12  1  0
 15 14  2  0
 19 14  1  0
 16 15  1  0
 17 16  2  0
 20 16  1  0
 18 17  1  0
 19 18  2  0
 21 20  1  0
 22 21  1  0
 24 22  1  0
 24 23  1  0
A    1
C1
A    2
C2
A    3
C3
A    4
C4
A    5
C5
A    6
C6
A    7
CL7
A    8
O8
A    9
C9
A   10
N10
A   11
C11
A   12
N12
A   13
O13
A   14
C14
A   15
N15
A   16
C16
A   17
C17
A   18
N18
A   19
C19
A   20
O20
A   21
C21
A   22
C22
A   23
C23
A   24
C24
M  END
>  <Id>  (6) 
2E9U_A25_A_1001

>  <ChainId>  (6) 
A

>  <AsymId>  (6) 
B

>  <SeqNum>  (6) 
1001

>  <Name>  (6) 
18-CHLORO-11,12,13,14-TETRAHYDRO-1H,10H-8,4-(AZENO)-9,15,1,3,6-BENZODIOXATRIAZACYCLOHEPTADECIN-2-ONE

>  <SystematicName>  (6) 
null

>  <Synonyms>  (6) 
7-CHLORO-11,17-DIOXA-2,4,20,22-TETRAAZA-TRICYCLO[16.3.1.0*5,10*]DOCOSA-1(22),5(10),6,8,18,20-HEXAEN-3-ONE

>  <Type>  (6) 
NON-POLYMER

>  <Formula>  (6) 
C16 H17 Cl N4 O3

>  <ObservedFormula>  (6) 
C16 Cl N4 O3

>  <MolecularWeight>  (6) 
348.784

>  <ModifiedDate>  (6) 
2011-06-04

>  <Parent>  (6) 


>  <OneLetterCode>  (6) 


>  <SubcomponentList>  (6) 


>  <AmbiguousFlag>  (6) 


>  <InsertionCode>  (6) 


>  <InstanceId>  (6) 
2E9U_A25_A_1001

>  <ChemCompId>  (6) 
A25

>  <PdbId>  (6) 
2E9U

>  <ResidueNumber>  (6) 
1001

>  <InChI>  (6) 
InChI=1S/C16H17ClN4O3/c17-11-4-5-13-12(8-11)19-16(22)21-14-9-18-10-15(20-14)24-7-3-1-2-6-23-13/h4-5,8-10H,1-3,6-7H2,(H2,19,20,21,22)

>  <InChIKey>  (6) 
JRSWWYITYIOHOP-UHFFFAOYSA-N

>  <SMILES>  (6) 
c1cc2c(cc1Cl)NC(=O)Nc3cncc(n3)OCCCCCO2

>  <MissingHeavyAtoms>  (6) 
0

>  <Model>  (6) 
1

>  <AltIds>  (6) 


>  <pKI>  (6) 
8.1

>  <ChemblID>  (6) 
CHEMBL223512

>  <standardized_canonical_smiles>  (6) 
O=C1Nc2cncc(n2)OCCCCCOc2ccc(Cl)cc2N1

$$$$
2E9V_85A_B_2001
     RDKit          3D

 34 37  0  0  0  0  0  0  0  0999 V2000
   26.2990   -0.7790   29.6420 C   0  0  0  0  0  0  0  0  0  0  0  0
   25.0760   -0.4970   28.8310 C   0  0  0  0  0  0  0  0  0  0  0  0
   25.0240   -0.9530   27.4240 C   0  0  0  0  0  0  0  0  0  0  0  0
   26.1910   -1.6690   26.8810 C   0  0  0  0  0  0  0  0  0  0  0  0
   27.3350   -1.9180   27.6870 C   0  0  0  0  0  0  0  0  0  0  0  0
   27.4200   -1.4840   29.0630 C   0  0  0  0  0  0  0  0  0  0  0  0
   28.5290   -1.7340   29.8030 N   0  0  0  0  0  0  0  0  0  0  0  0
   28.6360   -2.7500   26.9740 Cl  0  0  0  0  0  0  0  0  0  0  0  0
   17.9070    2.4980   26.5130 C   0  0  0  0  0  0  0  0  0  0  0  0
   16.9910    3.0840   26.9010 N   0  0  0  0  0  0  0  0  0  0  0  0
   23.8390   -0.6780   26.6360 N   0  0  0  0  0  0  0  0  0  0  0  0
   23.5390   -1.0210   25.2870 C   0  0  0  0  0  0  0  0  0  0  0  0
   22.3630   -0.5740   24.7400 N   0  0  0  0  0  0  0  0  0  0  0  0
   24.2700   -1.6990   24.5800 O   0  0  0  0  0  0  0  0  0  0  0  0
   21.2850    0.1820   25.1680 C   0  0  0  0  0  0  0  0  0  0  0  0
   21.1830    0.5520   26.5480 N   0  0  0  0  0  0  0  0  0  0  0  0
   20.0680    1.3200   26.9920 C   0  0  0  0  0  0  0  0  0  0  0  0
   19.0380    1.7240   26.0240 C   0  0  0  0  0  0  0  0  0  0  0  0
   19.1650    1.3570   24.6920 N   0  0  0  0  0  0  0  0  0  0  0  0
   20.2540    0.6080   24.2610 C   0  0  0  0  0  0  0  0  0  0  0  0
   23.9140    0.1720   29.2790 O   0  0  0  0  0  0  0  0  0  0  0  0
   24.0610    1.3460   30.0630 C   0  0  0  0  0  0  0  0  0  0  0  0
   21.1270    2.7520   30.3100 C   0  0  0  0  0  0  0  0  0  0  0  0
   20.9650    2.6810   28.7800 C   0  0  0  0  0  0  0  0  0  0  0  0
   20.0800    1.6210   28.3750 O   0  0  0  0  0  0  0  0  0  0  0  0
   23.1230    1.2850   31.2930 C   0  0  0  0  0  0  0  0  0  0  0  0
   21.8620    1.3820   30.3880 C   0  0  0  0  0  0  0  0  0  0  0  0
   28.6610   -2.7490   30.7880 C   0  0  0  0  0  0  0  0  0  0  0  0
   30.0990   -3.1540   30.9190 C   0  0  0  0  0  0  0  0  0  0  0  0
   30.9040   -2.6490   31.9750 C   0  0  0  0  0  0  0  0  0  0  0  0
   32.2530   -3.0580   32.0520 C   0  0  0  0  0  0  0  0  0  0  0  0
   32.8150   -3.9240   31.1470 N   0  0  0  0  0  0  0  0  0  0  0  0
   32.0360   -4.4070   30.1330 C   0  0  0  0  0  0  0  0  0  0  0  0
   30.6740   -4.0480   29.9820 C   0  0  0  0  0  0  0  0  0  0  0  0
  2  1  2  0
  6  1  1  0
  3  2  1  0
 21  2  1  0
  4  3  2  0
 11  3  1  0
  5  4  1  0
  6  5  2  0
  8  5  1  0
  7  6  1  0
 28  7  1  0
 10  9  3  0
 18  9  1  0
 12 11  1  0
 13 12  1  0
 14 12  2  0
 15 13  1  0
 16 15  1  0
 20 15  2  0
 17 16  2  0
 18 17  1  0
 25 17  1  0
 19 18  2  0
 20 19  1  0
 22 21  1  0
 26 22  1  0
 24 23  1  0
 27 23  1  0
 25 24  1  0
 27 26  1  0
 29 28  1  0
 30 29  2  0
 34 29  1  0
 31 30  1  0
 32 31  2  0
 33 32  1  0
 34 33  2  0
A    1
C1
A    2
C2
A    3
C3
A    4
C4
A    5
C5
A    6
C6
A    7
N7
A    8
CL8
A    9
C9
A   10
N10
A   11
N11
A   12
C12
A   13
N13
A   14
O14
A   15
C15
A   16
N16
A   17
C17
A   18
C18
A   19
N19
A   20
C20
A   21
O21
A   22
C22
A   23
C23
A   24
C24
A   25
O25
A   26
C26
A   27
C27
A   28
C28
A   29
C29
A   30
C30
A   31
C31
A   32
N32
A   33
C33
A   34
C34
M  END
>  <Id>  (7) 
2E9V_85A_B_2001

>  <ChainId>  (7) 
B

>  <AsymId>  (7) 
D

>  <SeqNum>  (7) 
2001

>  <Name>  (7) 
18-CHLORO-2-OXO-17-[(PYRIDIN-4-YLMETHYL)AMINO]-2,3,11,12,13,14-HEXAHYDRO-1H,10H-4,8-(AZENO)-9,15,1,3,6-BENZODIOXATRIAZACYCLOHEPTADECINE-7-CARBONITRILE

>  <SystematicName>  (7) 
null

>  <Synonyms>  (7) 
7-CHLORO-3-OXO-8-[(PYRIDIN-4-YLMETHYL)-AMINO]-11,17-DIOXA-2,4,20,22-TETRAAZA-TRICYCLO[16.3.1.0*5,10*]DOCOSA-1(21),5(10)6,8,18(22),19-HEXAENE-19-CARBONITRILE

>  <Type>  (7) 
NON-POLYMER

>  <Formula>  (7) 
C23 H22 Cl N7 O3

>  <ObservedFormula>  (7) 
C23 Cl N7 O3

>  <MolecularWeight>  (7) 
479.919

>  <ModifiedDate>  (7) 
2011-06-04

>  <Parent>  (7) 


>  <OneLetterCode>  (7) 


>  <SubcomponentList>  (7) 


>  <AmbiguousFlag>  (7) 


>  <InsertionCode>  (7) 


>  <InstanceId>  (7) 
2E9V_85A_B_2001

>  <ChemCompId>  (7) 
85A

>  <PdbId>  (7) 
2E9V

>  <ResidueNumber>  (7) 
2001

>  <InChI>  (7) 
InChI=1S/C23H22ClN7O3/c24-16-10-18-20(11-17(16)27-13-15-4-6-26-7-5-15)33-8-2-1-3-9-34-22-19(12-25)28-14-21(30-22)31-23(32)29-18/h4-7,10-11,14,27H,1-3,8-9,13H2,(H2,29,30,31,32)

>  <InChIKey>  (7) 
ZUEAHWHCYOLVEP-UHFFFAOYSA-N

>  <SMILES>  (7) 
c1cnccc1CNc2cc3c(cc2Cl)NC(=O)Nc4cnc(c(n4)OCCCCCO3)C#N

>  <MissingHeavyAtoms>  (7) 
0

>  <Model>  (7) 
1

>  <AltIds>  (7) 


>  <pKI>  (7) 
7.9

>  <ChemblID>  (7) 
CHEMBL220035

>  <standardized_canonical_smiles>  (7) 
N#Cc1ncc2nc1OCCCCCOc1cc(NCc3ccncc3)c(Cl)cc1NC(=O)N2

$$$$
4FSW_HK6_A_301
     RDKit          3D

 17 19  0  0  0  0  0  0  0  0999 V2000
   16.2050   -2.1800    9.0330 O   0  0  0  0  0  0  0  0  0  0  0  0
   17.0080   -3.0550    9.3570 C   0  0  0  0  0  0  0  0  0  0  0  0
   16.5110   -4.2990   10.0340 C   0  0  0  0  0  0  0  0  0  0  0  0
   15.1520   -4.5820    9.8700 C   0  0  0  0  0  0  0  0  0  0  0  0
   14.5390   -5.5630   10.6290 C   0  0  0  0  0  0  0  0  0  0  0  0
   15.2700   -6.3170   11.5150 C   0  0  0  0  0  0  0  0  0  0  0  0
   16.6300   -6.0970   11.6630 C   0  0  0  0  0  0  0  0  0  0  0  0
   17.2620   -5.0840   10.9390 C   0  0  0  0  0  0  0  0  0  0  0  0
   18.6250   -4.8550   11.2310 N   0  0  0  0  0  0  0  0  0  0  0  0
   18.3190   -2.9010    9.0930 N   0  0  0  0  0  0  0  0  0  0  0  0
   19.4430   -3.7480    9.2130 C   0  0  0  0  0  0  0  0  0  0  0  0
   20.4660   -3.5500    8.2930 C   0  0  0  0  0  0  0  0  0  0  0  0
   21.5890   -4.3490    8.3500 C   0  0  0  0  0  0  0  0  0  0  0  0
   22.9200   -4.0000    7.2860 Cl  0  0  0  0  0  0  0  0  0  0  0  0
   19.5650   -4.7440   10.1900 C   0  0  0  0  0  0  0  0  0  0  0  0
   20.6970   -5.5630   10.1990 C   0  0  0  0  0  0  0  0  0  0  0  0
   21.7080   -5.3660    9.2750 C   0  0  0  0  0  0  0  0  0  0  0  0
  2  1  2  0
  3  2  1  0
 10  2  1  0
  4  3  2  0
  8  3  1  0
  5  4  1  0
  6  5  2  0
  7  6  1  0
  8  7  2  0
  9  8  1  0
 15  9  1  0
 11 10  1  0
 12 11  1  0
 15 11  2  0
 13 12  2  0
 14 13  1  0
 17 13  1  0
 16 15  1  0
 17 16  2  0
A    1
O
A    2
C11
A    3
C10
A    4
C9
A    5
C8
A    6
C7
A    7
C6
A    8
C5
A    9
N1
A   10
N2
A   11
C12
A   12
C13
A   13
C1
A   14
CL
A   15
C4
A   16
C3
A   17
C2
M  END
>  <Id>  (8) 
4FSW_HK6_A_301

>  <ChainId>  (8) 
A

>  <AsymId>  (8) 
B

>  <SeqNum>  (8) 
301

>  <Name>  (8) 
8-chloro-5,10-dihydro-11H-dibenzo[b,e][1,4]diazepin-11-one

>  <SystematicName>  (8) 
3-chloranyl-5,11-dihydrobenzo[b][1,4]benzodiazepin-6-one

>  <Synonyms>  (8) 


>  <Type>  (8) 
NON-POLYMER

>  <Formula>  (8) 
C13 H9 Cl N2 O

>  <ObservedFormula>  (8) 
C13 Cl N2 O

>  <MolecularWeight>  (8) 
244.676

>  <ModifiedDate>  (8) 
2012-08-17

>  <Parent>  (8) 


>  <OneLetterCode>  (8) 


>  <SubcomponentList>  (8) 


>  <AmbiguousFlag>  (8) 
N

>  <InsertionCode>  (8) 


>  <InstanceId>  (8) 
4FSW_HK6_A_301

>  <ChemCompId>  (8) 
HK6

>  <PdbId>  (8) 
4FSW

>  <ResidueNumber>  (8) 
301

>  <InChI>  (8) 
InChI=1S/C13H9ClN2O/c14-8-5-6-11-12(7-8)16-13(17)9-3-1-2-4-10(9)15-11/h1-7,15H,(H,16,17)

>  <InChIKey>  (8) 
YVWNDABPZGGQFE-UHFFFAOYSA-N

>  <SMILES>  (8) 
c1ccc2c(c1)C(=O)Nc3cc(ccc3N2)Cl

>  <MissingHeavyAtoms>  (8) 
0

>  <Model>  (8) 
1

>  <AltIds>  (8) 


>  <pKI>  (8) 
4.8

>  <ChemblID>  (8) 
CHEMBL396034

>  <standardized_canonical_smiles>  (8) 
O=C1Nc2cc(Cl)ccc2Nc2ccccc21

$$$$
4FTL_H0K_A_301
     RDKit          3D

 27 31  0  0  0  0  0  0  0  0999 V2000
    7.3630   -4.5000   14.8460 O   0  0  0  0  0  0  0  0  0  0  0  0
    8.5750   -4.4100   14.2220 C   0  0  0  0  0  0  0  0  0  0  0  0
    9.3660   -5.5270   13.9780 C   0  0  0  0  0  0  0  0  0  0  0  0
   10.5800   -5.3860   13.3260 C   0  0  0  0  0  0  0  0  0  0  0  0
    9.0300   -3.1570   13.8540 C   0  0  0  0  0  0  0  0  0  0  0  0
   10.2440   -3.0270   13.2070 C   0  0  0  0  0  0  0  0  0  0  0  0
   11.0250   -4.1400   12.8800 C   0  0  0  0  0  0  0  0  0  0  0  0
   12.2780   -3.9870   12.0710 C   0  0  0  0  0  0  0  0  0  0  0  0
   13.2500   -4.9900   12.0050 C   0  0  0  0  0  0  0  0  0  0  0  0
   14.3750   -4.8530   11.2060 C   0  0  0  0  0  0  0  0  0  0  0  0
   12.4580   -2.8770   11.2500 C   0  0  0  0  0  0  0  0  0  0  0  0
   13.5790   -2.7330   10.4600 C   0  0  0  0  0  0  0  0  0  0  0  0
   14.5670   -3.7070   10.4390 C   0  0  0  0  0  0  0  0  0  0  0  0
   15.8660   -3.4390    9.7830 C   0  0  0  0  0  0  0  0  0  0  0  0
   17.0870   -4.0700    9.8900 C   0  0  0  0  0  0  0  0  0  0  0  0
   17.8590   -5.1540   10.5460 C   0  0  0  0  0  0  0  0  0  0  0  0
   16.0300   -2.4180    8.9110 N   0  0  0  0  0  0  0  0  0  0  0  0
   17.3010   -2.3220    8.4280 N   0  0  0  0  0  0  0  0  0  0  0  0
   17.9610   -3.3210    9.0190 C   0  0  0  0  0  0  0  0  0  0  0  0
   19.2870   -3.8900    9.1310 C   0  0  0  0  0  0  0  0  0  0  0  0
   19.2600   -4.9260   10.0570 C   0  0  0  0  0  0  0  0  0  0  0  0
   20.4370   -5.6030   10.3620 C   0  0  0  0  0  0  0  0  0  0  0  0
   21.6200   -5.2620    9.7290 C   0  0  0  0  0  0  0  0  0  0  0  0
   20.4800   -3.5620    8.4860 C   0  0  0  0  0  0  0  0  0  0  0  0
   21.6580   -4.2480    8.7730 C   0  0  0  0  0  0  0  0  0  0  0  0
   22.9320   -3.9150    8.0430 C   0  0  0  0  0  0  0  0  0  0  0  0
   23.7070   -5.0620    7.7380 O   0  0  0  0  0  0  0  0  0  0  0  0
  2  1  1  0
  3  2  2  0
  5  2  1  0
  4  3  1  0
  7  4  2  0
  6  5  2  0
  7  6  1  0
  8  7  1  0
  9  8  2  0
 11  8  1  0
 10  9  1  0
 13 10  2  0
 12 11  2  0
 13 12  1  0
 14 13  1  0
 15 14  2  0
 17 14  1  0
 16 15  1  0
 19 15  1  0
 21 16  1  0
 18 17  1  0
 19 18  2  0
 20 19  1  0
 21 20  2  0
 24 20  1  0
 22 21  1  0
 23 22  2  0
 25 23  1  0
 25 24  2  0
 26 25  1  0
 27 26  1  0
A    1
O2
A    2
C19
A    3
C18
A    4
C17
A    5
C20
A    6
C21
A    7
C16
A    8
C13
A    9
C12
A   10
C11
A   11
C14
A   12
C15
A   13
C10
A   14
C9
A   15
C7
A   16
C6
A   17
N2
A   18
N1
A   19
C8
A   20
C22
A   21
C5
A   22
C4
A   23
C3
A   24
C23
A   25
C2
A   26
C1
A   27
O1
M  END
>  <Id>  (9) 
4FTL_H0K_A_301

>  <ChainId>  (9) 
A

>  <AsymId>  (9) 
B

>  <SeqNum>  (9) 
301

>  <Name>  (9) 
4'-[7-(hydroxymethyl)-2,4-dihydroindeno[1,2-c]pyrazol-3-yl]biphenyl-4-ol

>  <SystematicName>  (9) 
4-[4-[7-(hydroxymethyl)-2,4-dihydroindeno[1,2-c]pyrazol-3-yl]phenyl]phenol

>  <Synonyms>  (9) 


>  <Type>  (9) 
NON-POLYMER

>  <Formula>  (9) 
C23 H18 N2 O2

>  <ObservedFormula>  (9) 
C23 N2 O2

>  <MolecularWeight>  (9) 
354.401

>  <ModifiedDate>  (9) 
2012-08-17

>  <Parent>  (9) 


>  <OneLetterCode>  (9) 


>  <SubcomponentList>  (9) 


>  <AmbiguousFlag>  (9) 
N

>  <InsertionCode>  (9) 


>  <InstanceId>  (9) 
4FTL_H0K_A_301

>  <ChemCompId>  (9) 
H0K

>  <PdbId>  (9) 
4FTL

>  <ResidueNumber>  (9) 
301

>  <InChI>  (9) 
InChI=1S/C23H18N2O2/c26-13-14-1-2-18-12-21-22(24-25-23(21)20(18)11-14)17-5-3-15(4-6-17)16-7-9-19(27)10-8-16/h1-11,26-27H,12-13H2,(H,24,25)

>  <InChIKey>  (9) 
BERKODPQGRAHDD-UHFFFAOYSA-N

>  <SMILES>  (9) 
c1cc(ccc1c2ccc(cc2)O)c3c4c(n[nH]3)-c5cc(ccc5C4)CO

>  <MissingHeavyAtoms>  (9) 
0

>  <Model>  (9) 
1

>  <AltIds>  (9) 


>  <pKI>  (9) 
8.4

>  <ChemblID>  (9) 
CHEMBL232804

>  <standardized_canonical_smiles>  (9) 
OCc1ccc2c(c1)-c1[nH]nc(-c3ccc(-c4ccc(O)cc4)cc3)c1C2

$$$$
4FTK_H9K_A_301
     RDKit          3D

 26 30  0  0  0  0  0  0  0  0999 V2000
   22.5800   -6.1860   10.5860 O   0  0  0  0  0  0  0  0  0  0  0  0
   21.4950   -5.4300   10.2290 C   0  0  0  0  0  0  0  0  0  0  0  0
   20.2510   -5.6910   10.7850 C   0  0  0  0  0  0  0  0  0  0  0  0
   21.6310   -4.4260    9.2800 C   0  0  0  0  0  0  0  0  0  0  0  0
   20.5250   -3.6830    8.8990 C   0  0  0  0  0  0  0  0  0  0  0  0
   19.2650   -3.9600    9.4340 C   0  0  0  0  0  0  0  0  0  0  0  0
   17.9490   -3.3520    9.2690 C   0  0  0  0  0  0  0  0  0  0  0  0
   17.3520   -2.3130    8.6710 N   0  0  0  0  0  0  0  0  0  0  0  0
   16.0300   -2.4230    9.0200 N   0  0  0  0  0  0  0  0  0  0  0  0
   19.1300   -4.9830   10.3700 C   0  0  0  0  0  0  0  0  0  0  0  0
   17.6810   -5.1940   10.6990 C   0  0  0  0  0  0  0  0  0  0  0  0
   16.9920   -4.1250   10.0130 C   0  0  0  0  0  0  0  0  0  0  0  0
   15.7870   -3.4880    9.8160 C   0  0  0  0  0  0  0  0  0  0  0  0
   14.4960   -3.7190   10.4930 C   0  0  0  0  0  0  0  0  0  0  0  0
   13.4880   -2.7670   10.4470 C   0  0  0  0  0  0  0  0  0  0  0  0
   12.3330   -2.9270   11.1850 C   0  0  0  0  0  0  0  0  0  0  0  0
   14.2910   -4.8600   11.2650 C   0  0  0  0  0  0  0  0  0  0  0  0
   13.1320   -5.0120   12.0050 C   0  0  0  0  0  0  0  0  0  0  0  0
   12.1310   -4.0380   11.9990 C   0  0  0  0  0  0  0  0  0  0  0  0
   10.9730   -4.1060   12.9410 C   0  0  0  0  0  0  0  0  0  0  0  0
   10.2440   -2.9560   13.2670 C   0  0  0  0  0  0  0  0  0  0  0  0
    8.9900   -3.0270   13.8440 C   0  0  0  0  0  0  0  0  0  0  0  0
   10.4140   -5.3330   13.3000 C   0  0  0  0  0  0  0  0  0  0  0  0
    9.1610   -5.4160   13.8850 C   0  0  0  0  0  0  0  0  0  0  0  0
    8.4370   -4.2620   14.1410 C   0  0  0  0  0  0  0  0  0  0  0  0
    7.2270   -4.3570   14.7630 O   0  0  0  0  0  0  0  0  0  0  0  0
  2  1  1  0
  3  2  2  0
  4  2  1  0
 10  3  1  0
  5  4  2  0
  6  5  1  0
  7  6  1  0
 10  6  2  0
  8  7  2  0
 12  7  1  0
  9  8  1  0
 13  9  1  0
 11 10  1  0
 12 11  1  0
 13 12  2  0
 14 13  1  0
 15 14  2  0
 17 14  1  0
 16 15  1  0
 19 16  2  0
 18 17  2  0
 19 18  1  0
 20 19  1  0
 21 20  2  0
 23 20  1  0
 22 21  1  0
 25 22  2  0
 24 23  2  0
 25 24  1  0
 26 25  1  0
A    1
O2
A    2
C19
A    3
C18
A    4
C20
A    5
C21
A    6
C22
A    7
C14
A    8
N2
A    9
N1
A   10
C17
A   11
C16
A   12
C15
A   13
C13
A   14
C10
A   15
C9
A   16
C8
A   17
C11
A   18
C12
A   19
C7
A   20
C4
A   21
C3
A   22
C2
A   23
C5
A   24
C6
A   25
C1
A   26
O1
M  END
>  <Id>  (10) 
4FTK_H9K_A_301

>  <ChainId>  (10) 
A

>  <AsymId>  (10) 
B

>  <SeqNum>  (10) 
301

>  <Name>  (10) 
3-(4'-hydroxybiphenyl-4-yl)-2,4-dihydroindeno[1,2-c]pyrazol-6-ol

>  <SystematicName>  (10) 
3-[4-(4-hydroxyphenyl)phenyl]-2,4-dihydroindeno[1,2-c]pyrazol-6-ol

>  <Synonyms>  (10) 


>  <Type>  (10) 
NON-POLYMER

>  <Formula>  (10) 
C22 H16 N2 O2

>  <ObservedFormula>  (10) 
C22 N2 O2

>  <MolecularWeight>  (10) 
340.375

>  <ModifiedDate>  (10) 
2012-08-17

>  <Parent>  (10) 


>  <OneLetterCode>  (10) 


>  <SubcomponentList>  (10) 


>  <AmbiguousFlag>  (10) 
N

>  <InsertionCode>  (10) 


>  <InstanceId>  (10) 
4FTK_H9K_A_301

>  <ChemCompId>  (10) 
H9K

>  <PdbId>  (10) 
4FTK

>  <ResidueNumber>  (10) 
301

>  <InChI>  (10) 
InChI=1S/C22H16N2O2/c25-17-7-5-14(6-8-17)13-1-3-15(4-2-13)21-20-12-16-11-18(26)9-10-19(16)22(20)24-23-21/h1-11,25-26H,12H2,(H,23,24)

>  <InChIKey>  (10) 
YHNRFNJYCLUDHD-UHFFFAOYSA-N

>  <SMILES>  (10) 
c1cc(ccc1c2ccc(cc2)O)c3c4c(n[nH]3)-c5ccc(cc5C4)O

>  <MissingHeavyAtoms>  (10) 
0

>  <Model>  (10) 
1

>  <AltIds>  (10) 


>  <pKI>  (10) 
8.2

>  <ChemblID>  (10) 
CHEMBL391449

>  <standardized_canonical_smiles>  (10) 
Oc1ccc(-c2ccc(-c3n[nH]c4c3Cc3cc(O)ccc3-4)cc2)cc1

$$$$
4FST_HK4_A_301
     RDKit          3D

 27 30  0  0  0  0  0  0  0  0999 V2000
    7.5360   -4.3480   14.6220 O   0  0  0  0  0  0  0  0  0  0  0  0
    8.6360   -4.1410   13.8530 C   0  0  0  0  0  0  0  0  0  0  0  0
    9.0760   -2.8400   13.5820 C   0  0  0  0  0  0  0  0  0  0  0  0
    8.3030   -1.8520   14.1360 O   0  0  0  0  0  0  0  0  0  0  0  0
    8.6830   -0.4910   13.9100 C   0  0  0  0  0  0  0  0  0  0  0  0
   10.2160   -2.6340   12.8210 C   0  0  0  0  0  0  0  0  0  0  0  0
   10.9210   -3.7280   12.3210 C   0  0  0  0  0  0  0  0  0  0  0  0
   10.4980   -5.0260   12.6090 C   0  0  0  0  0  0  0  0  0  0  0  0
    9.3580   -5.2290   13.3620 C   0  0  0  0  0  0  0  0  0  0  0  0
   12.0620   -3.5020   11.4760 C   0  0  0  0  0  0  0  0  0  0  0  0
   13.0260   -3.2870   10.8070 C   0  0  0  0  0  0  0  0  0  0  0  0
   14.2290   -3.1320   10.1290 C   0  0  0  0  0  0  0  0  0  0  0  0
   15.3820   -3.8850   10.1930 C   0  0  0  0  0  0  0  0  0  0  0  0
   16.0050   -5.0690   10.8170 C   0  0  0  0  0  0  0  0  0  0  0  0
   17.4340   -4.9860   10.3600 C   0  0  0  0  0  0  0  0  0  0  0  0
   17.5920   -3.9070    9.5010 C   0  0  0  0  0  0  0  0  0  0  0  0
   16.3400   -3.1830    9.3730 C   0  0  0  0  0  0  0  0  0  0  0  0
   15.8220   -2.0760    8.8280 N   0  0  0  0  0  0  0  0  0  0  0  0
   14.5370   -2.0460    9.2920 N   0  0  0  0  0  0  0  0  0  0  0  0
   18.8340   -3.6250    8.9350 C   0  0  0  0  0  0  0  0  0  0  0  0
   19.9290   -4.4210    9.2490 C   0  0  0  0  0  0  0  0  0  0  0  0
   21.1960   -4.2540    8.7490 O   0  0  0  0  0  0  0  0  0  0  0  0
   21.4160   -3.2260    7.7810 C   0  0  0  0  0  0  0  0  0  0  0  0
   19.7730   -5.5120   10.1310 C   0  0  0  0  0  0  0  0  0  0  0  0
   18.5250   -5.7890   10.6750 C   0  0  0  0  0  0  0  0  0  0  0  0
   20.9160   -6.2290   10.3710 O   0  0  0  0  0  0  0  0  0  0  0  0
   20.8330   -7.3800   11.2140 C   0  0  0  0  0  0  0  0  0  0  0  0
  2  1  1  0
  3  2  2  0
  9  2  1  0
  4  3  1  0
  6  3  1  0
  5  4  1  0
  7  6  2  0
  8  7  1  0
 10  7  1  0
  9  8  2  0
 11 10  3  0
 12 11  1  0
 13 12  2  0
 19 12  1  0
 14 13  1  0
 17 13  1  0
 15 14  1  0
 16 15  2  0
 25 15  1  0
 17 16  1  0
 20 16  1  0
 18 17  2  0
 19 18  1  0
 21 20  2  0
 22 21  1  0
 24 21  1  0
 23 22  1  0
 25 24  2  0
 26 24  1  0
 27 26  1  0
A    1
O1
A    2
C1
A    3
C6
A    4
O2
A    5
C7
A    6
C5
A    7
C4
A    8
C3
A    9
C2
A   10
C8
A   11
C9
A   12
C10
A   13
C12
A   14
C13
A   15
C14
A   16
C21
A   17
C11
A   18
N2
A   19
N1
A   20
C20
A   21
C18
A   22
O4
A   23
C19
A   24
C16
A   25
C15
A   26
O3
A   27
C17
M  END
>  <Id>  (11) 
4FST_HK4_A_301

>  <ChainId>  (11) 
A

>  <AsymId>  (11) 
B

>  <SeqNum>  (11) 
301

>  <Name>  (11) 
4-[(6,7-dimethoxy-2,4-dihydroindeno[1,2-c]pyrazol-3-yl)ethynyl]-2-methoxyphenol

>  <SystematicName>  (11) 
4-[2-(6,7-dimethoxy-2,4-dihydroindeno[1,2-c]pyrazol-3-yl)ethynyl]-2-methoxy-phenol

>  <Synonyms>  (11) 


>  <Type>  (11) 
NON-POLYMER

>  <Formula>  (11) 
C21 H18 N2 O4

>  <ObservedFormula>  (11) 
C21 N2 O4

>  <MolecularWeight>  (11) 
362.379

>  <ModifiedDate>  (11) 
2012-08-17

>  <Parent>  (11) 


>  <OneLetterCode>  (11) 


>  <SubcomponentList>  (11) 


>  <AmbiguousFlag>  (11) 
N

>  <InsertionCode>  (11) 


>  <InstanceId>  (11) 
4FST_HK4_A_301

>  <ChemCompId>  (11) 
HK4

>  <PdbId>  (11) 
4FST

>  <ResidueNumber>  (11) 
301

>  <InChI>  (11) 
InChI=1S/C21H18N2O4/c1-25-18-8-12(5-7-17(18)24)4-6-16-15-9-13-10-19(26-2)20(27-3)11-14(13)21(15)23-22-16/h5,7-8,10-11,24H,9H2,1-3H3,(H,22,23)

>  <InChIKey>  (11) 
MPWLZTAOZDBWMH-UHFFFAOYSA-N

>  <SMILES>  (11) 
COc1cc(ccc1O)C#Cc2c3c(n[nH]2)-c4cc(c(cc4C3)OC)OC

>  <MissingHeavyAtoms>  (11) 
0

>  <Model>  (11) 
1

>  <AltIds>  (11) 


>  <pKI>  (11) 
8.3

>  <ChemblID>  (11) 
CHEMBL248396

>  <standardized_canonical_smiles>  (11) 
COc1cc(C#Cc2[nH]nc3c2Cc2cc(OC)c(OC)cc2-3)ccc1O

$$$$
4FSR_HKC_A_300
     RDKit          3D

 27 31  0  0  0  0  0  0  0  0999 V2000
   22.5740   -2.1060    7.0840 C   0  0  0  0  0  0  0  0  0  0  0  0
   22.5400   -3.3890    7.7070 O   0  0  0  0  0  0  0  0  0  0  0  0
   21.3610   -3.8090    8.2600 C   0  0  0  0  0  0  0  0  0  0  0  0
   21.4500   -4.9720    9.0570 C   0  0  0  0  0  0  0  0  0  0  0  0
   22.6860   -5.5600    9.0960 O   0  0  0  0  0  0  0  0  0  0  0  0
   22.8530   -6.7220    9.9060 C   0  0  0  0  0  0  0  0  0  0  0  0
   20.1440   -3.1540    8.1260 C   0  0  0  0  0  0  0  0  0  0  0  0
   19.0270   -3.6340    8.8040 C   0  0  0  0  0  0  0  0  0  0  0  0
   19.1140   -4.7720    9.5970 C   0  0  0  0  0  0  0  0  0  0  0  0
   20.3270   -5.4390    9.7260 C   0  0  0  0  0  0  0  0  0  0  0  0
   17.7150   -3.1540    8.8480 C   0  0  0  0  0  0  0  0  0  0  0  0
   16.8910   -2.0230    8.4000 N   0  0  0  0  0  0  0  0  0  0  0  0
   15.7490   -2.1390    8.9050 N   0  0  0  0  0  0  0  0  0  0  0  0
   15.6720   -3.3870    9.7580 C   0  0  0  0  0  0  0  0  0  0  0  0
   16.9430   -3.9830    9.6610 C   0  0  0  0  0  0  0  0  0  0  0  0
   17.7670   -5.0990   10.1690 C   0  0  0  0  0  0  0  0  0  0  0  0
   14.4660   -3.8090   10.5050 C   0  0  0  0  0  0  0  0  0  0  0  0
   13.3300   -3.0060   10.5780 C   0  0  0  0  0  0  0  0  0  0  0  0
   12.2270   -3.4120   11.3080 C   0  0  0  0  0  0  0  0  0  0  0  0
   12.2190   -4.6470   11.9550 C   0  0  0  0  0  0  0  0  0  0  0  0
   13.3440   -5.4560   11.8600 C   0  0  0  0  0  0  0  0  0  0  0  0
   14.4530   -5.0420   11.1480 C   0  0  0  0  0  0  0  0  0  0  0  0
   11.0470   -5.0830   12.7380 C   0  0  0  0  0  0  0  0  0  0  0  0
    9.8740   -4.3910   12.9050 N   0  0  0  0  0  0  0  0  0  0  0  0
    9.0340   -5.2060   13.5810 N   0  0  0  0  0  0  0  0  0  0  0  0
    9.6420   -6.3360   13.8470 N   0  0  0  0  0  0  0  0  0  0  0  0
   10.9110   -6.3000   13.3560 N   0  0  0  0  0  0  0  0  0  0  0  0
  2  1  1  0
  3  2  1  0
  4  3  2  0
  7  3  1  0
  5  4  1  0
 10  4  1  0
  6  5  1  0
  8  7  2  0
  9  8  1  0
 11  8  1  0
 10  9  2  0
 16  9  1  0
 12 11  1  0
 15 11  2  0
 13 12  1  0
 14 13  2  0
 15 14  1  0
 17 14  1  0
 16 15  1  0
 18 17  2  0
 22 17  1  0
 19 18  1  0
 20 19  2  0
 21 20  1  0
 23 20  1  0
 22 21  2  0
 24 23  1  0
 27 23  2  0
 25 24  1  0
 26 25  2  0
 27 26  1  0
A    1
C19
A    2
O2
A    3
C18
A    4
C2
A    5
O1
A    6
C1
A    7
C17
A    8
C16
A    9
C4
A   10
C3
A   11
C7
A   12
N1
A   13
N2
A   14
C8
A   15
C6
A   16
C5
A   17
C9
A   18
C15
A   19
C14
A   20
C12
A   21
C11
A   22
C10
A   23
C13
A   24
N6
A   25
N5
A   26
N4
A   27
N3
M  END
>  <Id>  (12) 
4FSR_HKC_A_300

>  <ChainId>  (12) 
A

>  <AsymId>  (12) 
B

>  <SeqNum>  (12) 
300

>  <Name>  (12) 
6,7-dimethoxy-3-[4-(1H-tetrazol-5-yl)phenyl]-1,4-dihydroindeno[1,2-c]pyrazole

>  <SystematicName>  (12) 
6,7-dimethoxy-3-[4-(1H-1,2,3,4-tetrazol-5-yl)phenyl]-1,4-dihydroindeno[1,2-c]pyrazole

>  <Synonyms>  (12) 


>  <Type>  (12) 
NON-POLYMER

>  <Formula>  (12) 
C19 H16 N6 O2

>  <ObservedFormula>  (12) 
C19 N6 O2

>  <MolecularWeight>  (12) 
360.369

>  <ModifiedDate>  (12) 
2012-08-17

>  <Parent>  (12) 


>  <OneLetterCode>  (12) 


>  <SubcomponentList>  (12) 


>  <AmbiguousFlag>  (12) 
N

>  <InsertionCode>  (12) 


>  <InstanceId>  (12) 
4FSR_HKC_A_300

>  <ChemCompId>  (12) 
HKC

>  <PdbId>  (12) 
4FSR

>  <ResidueNumber>  (12) 
300

>  <InChI>  (12) 
InChI=1S/C19H16N6O2/c1-26-15-8-12-7-14-17(20-21-18(14)13(12)9-16(15)27-2)10-3-5-11(6-4-10)19-22-24-25-23-19/h3-6,8-9H,7H2,1-2H3,(H,20,21)(H,22,23,24,25)

>  <InChIKey>  (12) 
NDAAHSGATZAMOW-UHFFFAOYSA-N

>  <SMILES>  (12) 
COc1cc2c(cc1OC)-c3c(c(n[nH]3)c4ccc(cc4)c5[nH]nnn5)C2

>  <MissingHeavyAtoms>  (12) 
0

>  <Model>  (12) 
1

>  <AltIds>  (12) 


>  <pKI>  (12) 
7.9

>  <ChemblID>  (12) 
CHEMBL245605

>  <standardized_canonical_smiles>  (12) 
COc1cc2c(cc1OC)-c1[nH]nc(-c3ccc(-c4nn[nH]n4)cc3)c1C2

$$$$
4FTA_H5K_A_301
     RDKit          3D

 25 27  0  0  0  0  0  0  0  0999 V2000
   10.7980   -5.6580   13.6090 N   0  0  0  0  0  0  0  0  0  0  0  0
   11.5360   -5.0930   12.9530 C   0  0  0  0  0  0  0  0  0  0  0  0
   12.4280   -4.3830   12.1110 C   0  0  0  0  0  0  0  0  0  0  0  0
   12.0290   -3.1830   11.6490 N   0  0  0  0  0  0  0  0  0  0  0  0
   12.8310   -2.5780   10.7660 C   0  0  0  0  0  0  0  0  0  0  0  0
   13.6630   -4.9630   11.7120 C   0  0  0  0  0  0  0  0  0  0  0  0
   14.4740   -4.3200   10.8600 N   0  0  0  0  0  0  0  0  0  0  0  0
   14.0640   -3.1310   10.3880 C   0  0  0  0  0  0  0  0  0  0  0  0
   14.8980   -2.4430    9.4870 N   0  0  0  0  0  0  0  0  0  0  0  0
   16.1590   -2.7070    9.0110 C   0  0  0  0  0  0  0  0  0  0  0  0
   16.7030   -1.9900    8.1770 O   0  0  0  0  0  0  0  0  0  0  0  0
   16.7640   -3.8090    9.5780 N   0  0  0  0  0  0  0  0  0  0  0  0
   18.1480   -4.1400    9.5610 C   0  0  0  0  0  0  0  0  0  0  0  0
   19.0530   -3.4830    8.7540 C   0  0  0  0  0  0  0  0  0  0  0  0
   18.5870   -5.1660   10.3950 C   0  0  0  0  0  0  0  0  0  0  0  0
   19.8970   -5.5450   10.4150 C   0  0  0  0  0  0  0  0  0  0  0  0
   20.8540   -4.9010    9.5920 C   0  0  0  0  0  0  0  0  0  0  0  0
   20.4230   -3.8380    8.7580 C   0  0  0  0  0  0  0  0  0  0  0  0
   21.3800   -3.1910    7.9400 C   0  0  0  0  0  0  0  0  0  0  0  0
   22.6870   -3.5780    7.9430 C   0  0  0  0  0  0  0  0  0  0  0  0
   22.2160   -5.2850    9.5560 C   0  0  0  0  0  0  0  0  0  0  0  0
   23.1240   -4.6310    8.7520 C   0  0  0  0  0  0  0  0  0  0  0  0
   24.5760   -4.9940    8.7760 C   0  0  0  0  0  0  0  0  0  0  0  0
   25.3920   -4.4220    8.0550 O   0  0  0  0  0  0  0  0  0  0  0  0
   24.9140   -5.9400    9.6130 O   0  0  0  0  0  0  0  0  0  0  0  0
  2  1  3  0
  3  2  1  0
  4  3  2  0
  6  3  1  0
  5  4  1  0
  8  5  2  0
  7  6  2  0
  8  7  1  0
  9  8  1  0
 10  9  1  0
 11 10  2  0
 12 10  1  0
 13 12  1  0
 14 13  2  0
 15 13  1  0
 18 14  1  0
 16 15  2  0
 17 16  1  0
 18 17  2  0
 21 17  1  0
 19 18  1  0
 20 19  2  0
 22 20  1  0
 22 21  2  0
 23 22  1  0
 24 23  2  0
 25 23  1  0
A    1
N5
A    2
C13
A    3
C11
A    4
N3
A    5
C10
A    6
C12
A    7
N4
A    8
C9
A    9
N2
A   10
C8
A   11
O3
A   12
N1
A   13
C7
A   14
C6
A   15
C14
A   16
C15
A   17
C16
A   18
C5
A   19
C4
A   20
C3
A   21
C17
A   22
C2
A   23
C1
A   24
O2
A   25
O1
M  END
>  <Id>  (13) 
4FTA_H5K_A_301

>  <ChainId>  (13) 
A

>  <AsymId>  (13) 
B

>  <SeqNum>  (13) 
301

>  <Name>  (13) 
6-{[(5-cyanopyrazin-2-yl)carbamoyl]amino}naphthalene-2-carboxylic acid

>  <SystematicName>  (13) 
6-[(5-cyanopyrazin-2-yl)carbamoylamino]naphthalene-2-carboxylic acid

>  <Synonyms>  (13) 


>  <Type>  (13) 
NON-POLYMER

>  <Formula>  (13) 
C17 H11 N5 O3

>  <ObservedFormula>  (13) 
C17 N5 O3

>  <MolecularWeight>  (13) 
333.301

>  <ModifiedDate>  (13) 
2012-08-17

>  <Parent>  (13) 


>  <OneLetterCode>  (13) 


>  <SubcomponentList>  (13) 


>  <AmbiguousFlag>  (13) 
N

>  <InsertionCode>  (13) 


>  <InstanceId>  (13) 
4FTA_H5K_A_301

>  <ChemCompId>  (13) 
H5K

>  <PdbId>  (13) 
4FTA

>  <ResidueNumber>  (13) 
301

>  <InChI>  (13) 
InChI=1S/C17H11N5O3/c18-7-14-8-20-15(9-19-14)22-17(25)21-13-4-3-10-5-12(16(23)24)2-1-11(10)6-13/h1-6,8-9H,(H,23,24)(H2,20,21,22,25)

>  <InChIKey>  (13) 
CACMTVGXYAZZNY-UHFFFAOYSA-N

>  <SMILES>  (13) 
c1cc(cc2c1cc(cc2)NC(=O)Nc3cnc(cn3)C#N)C(=O)O

>  <MissingHeavyAtoms>  (13) 
0

>  <Model>  (13) 
1

>  <AltIds>  (13) 


>  <pKI>  (13) 
6.9

>  <ChemblID>  (13) 
CHEMBL560813

>  <standardized_canonical_smiles>  (13) 
N#Cc1cnc(NC(=O)Nc2ccc3cc(C(=O)O)ccc3c2)cn1

$$$$
4FT0_HK9_A_301
     RDKit          3D

 27 30  0  0  0  0  0  0  0  0999 V2000
   16.5680   -1.8520    9.0780 O   0  0  0  0  0  0  0  0  0  0  0  0
   17.2080   -2.8960    9.3490 C   0  0  0  0  0  0  0  0  0  0  0  0
   18.5380   -2.8700    8.9280 N   0  0  0  0  0  0  0  0  0  0  0  0
   19.6230   -3.7110    9.1840 C   0  0  0  0  0  0  0  0  0  0  0  0
   20.7650   -3.5050    8.3400 C   0  0  0  0  0  0  0  0  0  0  0  0
   21.8820   -4.3230    8.4040 C   0  0  0  0  0  0  0  0  0  0  0  0
   21.9110   -5.3800    9.3110 C   0  0  0  0  0  0  0  0  0  0  0  0
   20.8270   -5.5980   10.1560 C   0  0  0  0  0  0  0  0  0  0  0  0
   19.6540   -4.7650   10.1160 C   0  0  0  0  0  0  0  0  0  0  0  0
   18.6050   -5.1890   10.9320 N   0  0  0  0  0  0  0  0  0  0  0  0
   16.6030   -4.0270   10.0300 C   0  0  0  0  0  0  0  0  0  0  0  0
   17.2370   -4.9310   10.8830 C   0  0  0  0  0  0  0  0  0  0  0  0
   16.4530   -5.8450   11.6300 C   0  0  0  0  0  0  0  0  0  0  0  0
   15.2000   -4.1380    9.8570 C   0  0  0  0  0  0  0  0  0  0  0  0
   14.4550   -5.0510   10.5430 C   0  0  0  0  0  0  0  0  0  0  0  0
   15.0690   -5.9170   11.4840 C   0  0  0  0  0  0  0  0  0  0  0  0
   14.2520   -6.8290   12.3080 C   0  0  0  0  0  0  0  0  0  0  0  0
   12.9780   -6.4170   12.7410 C   0  0  0  0  0  0  0  0  0  0  0  0
   14.7180   -8.1290   12.6730 C   0  0  0  0  0  0  0  0  0  0  0  0
   13.9190   -8.9750   13.4450 C   0  0  0  0  0  0  0  0  0  0  0  0
   12.6360   -8.5650   13.8870 C   0  0  0  0  0  0  0  0  0  0  0  0
   11.8740   -9.5030   14.8080 C   0  0  0  0  0  0  0  0  0  0  0  0
   12.5500  -10.0790   15.6850 O   0  0  0  0  0  0  0  0  0  0  0  0
   10.6540   -9.6070   14.6230 O   0  0  0  0  0  0  0  0  0  0  0  0
   12.1610   -7.2860   13.5130 C   0  0  0  0  0  0  0  0  0  0  0  0
   10.8700   -6.8920   13.8960 O   0  0  0  0  0  0  0  0  0  0  0  0
   10.2970   -5.7400   13.2960 C   0  0  0  0  0  0  0  0  0  0  0  0
  2  1  2  0
  3  2  1  0
 11  2  1  0
  4  3  1  0
  5  4  2  0
  9  4  1  0
  6  5  1  0
  7  6  2  0
  8  7  1  0
  9  8  2  0
 10  9  1  0
 12 10  1  0
 12 11  2  0
 14 11  1  0
 13 12  1  0
 16 13  2  0
 15 14  2  0
 16 15  1  0
 17 16  1  0
 18 17  2  0
 19 17  1  0
 25 18  1  0
 20 19  2  0
 21 20  1  0
 22 21  1  0
 25 21  2  0
 23 22  1  0
 24 22  2  0
 26 25  1  0
 27 26  1  0
A    1
O4
A    2
C14
A    3
N2
A    4
C13
A    5
C18
A    6
C19
A    7
C20
A    8
C21
A    9
C12
A   10
N1
A   11
C15
A   12
C11
A   13
C10
A   14
C16
A   15
C17
A   16
C9
A   17
C4
A   18
C3
A   19
C5
A   20
C6
A   21
C7
A   22
C8
A   23
O3
A   24
O2
A   25
C2
A   26
O1
A   27
C1
M  END
>  <Id>  (14) 
4FT0_HK9_A_301

>  <ChainId>  (14) 
A

>  <AsymId>  (14) 
B

>  <SeqNum>  (14) 
301

>  <Name>  (14) 
2-methoxy-4-(11-oxo-10,11-dihydro-5H-dibenzo[b,e][1,4]diazepin-3-yl)benzoic acid

>  <SystematicName>  (14) 
2-methoxy-4-(6-oxidanylidene-5,11-dihydrobenzo[b][1,4]benzodiazepin-9-yl)benzoic acid

>  <Synonyms>  (14) 


>  <Type>  (14) 
NON-POLYMER

>  <Formula>  (14) 
C21 H16 N2 O4

>  <ObservedFormula>  (14) 
C21 N2 O4

>  <MolecularWeight>  (14) 
360.363

>  <ModifiedDate>  (14) 
2012-08-17

>  <Parent>  (14) 


>  <OneLetterCode>  (14) 


>  <SubcomponentList>  (14) 


>  <AmbiguousFlag>  (14) 
N

>  <InsertionCode>  (14) 


>  <InstanceId>  (14) 
4FT0_HK9_A_301

>  <ChemCompId>  (14) 
HK9

>  <PdbId>  (14) 
4FT0

>  <ResidueNumber>  (14) 
301

>  <InChI>  (14) 
InChI=1S/C21H16N2O4/c1-27-19-11-13(7-9-15(19)21(25)26)12-6-8-14-18(10-12)22-16-4-2-3-5-17(16)23-20(14)24/h2-11,22H,1H3,(H,23,24)(H,25,26)

>  <InChIKey>  (14) 
OEIBPYXEHRSJOU-UHFFFAOYSA-N

>  <SMILES>  (14) 
COc1cc(ccc1C(=O)O)c2ccc3c(c2)Nc4ccccc4NC3=O

>  <MissingHeavyAtoms>  (14) 
0

>  <Model>  (14) 
1

>  <AltIds>  (14) 


>  <pKI>  (14) 
7.1

>  <ChemblID>  (14) 
CHEMBL552355

>  <standardized_canonical_smiles>  (14) 
COc1cc(-c2ccc3c(c2)Nc2ccccc2NC3=O)ccc1C(=O)O

$$$$
2E9N_76A_A_1001
     RDKit          3D

 35 40  0  0  0  0  0  0  0  0999 V2000
  -13.4960    9.4900  -13.8670 O   0  0  0  0  0  0  0  0  0  0  0  0
   -9.6580    9.3950  -16.0270 C   0  0  0  0  0  0  0  0  0  0  0  0
  -10.3360    8.1260  -15.6120 C   0  0  0  0  0  0  0  0  0  0  0  0
  -11.6250    8.1580  -14.8870 C   0  0  0  0  0  0  0  0  0  0  0  0
  -12.2860    9.4560  -14.5480 C   0  0  0  0  0  0  0  0  0  0  0  0
  -11.6410   10.7100  -14.9420 C   0  0  0  0  0  0  0  0  0  0  0  0
  -10.3660   10.6880  -15.6600 C   0  0  0  0  0  0  0  0  0  0  0  0
   -5.7140    9.6140  -18.3310 C   0  0  0  0  0  0  0  0  0  0  0  0
   -6.1180    8.3060  -17.6850 C   0  0  0  0  0  0  0  0  0  0  0  0
   -7.3940    8.2220  -16.9350 C   0  0  0  0  0  0  0  0  0  0  0  0
   -8.2980    9.4160  -16.8020 C   0  0  0  0  0  0  0  0  0  0  0  0
   -7.8550   10.6720  -17.4560 C   0  0  0  0  0  0  0  0  0  0  0  0
   -6.6180   10.7760  -18.1890 C   0  0  0  0  0  0  0  0  0  0  0  0
   -4.4200    9.8530  -19.1240 C   0  0  0  0  0  0  0  0  0  0  0  0
   -4.2420   10.5910  -20.2580 N   0  0  0  0  0  0  0  0  0  0  0  0
   -2.9630   10.6280  -20.7230 N   0  0  0  0  0  0  0  0  0  0  0  0
   -2.2310    9.8610  -19.8500 C   0  0  0  0  0  0  0  0  0  0  0  0
   -3.1120    9.3620  -18.8240 C   0  0  0  0  0  0  0  0  0  0  0  0
   -0.9270    9.4350  -19.6310 C   0  0  0  0  0  0  0  0  0  0  0  0
   -0.9940    8.6030  -18.3890 C   0  0  0  0  0  0  0  0  0  0  0  0
   -2.3500    8.5850  -17.9410 C   0  0  0  0  0  0  0  0  0  0  0  0
    0.3570    9.6330  -20.3260 C   0  0  0  0  0  0  0  0  0  0  0  0
    1.6120    8.9950  -19.7760 C   0  0  0  0  0  0  0  0  0  0  0  0
    1.5530    8.1490  -18.5110 C   0  0  0  0  0  0  0  0  0  0  0  0
    0.2170    7.9750  -17.8480 C   0  0  0  0  0  0  0  0  0  0  0  0
    2.7020    7.5290  -17.9170 C   0  0  0  0  0  0  0  0  0  0  0  0
    3.5980    6.8640  -18.7560 N   0  0  0  0  0  0  0  0  0  0  0  0
    2.9080    7.5990  -16.6860 O   0  0  0  0  0  0  0  0  0  0  0  0
    4.8400    6.2040  -18.2460 C   0  0  0  0  0  0  0  0  0  0  0  0
    4.9170    4.6690  -18.5860 C   0  0  0  0  0  0  0  0  0  0  0  0
    6.2470    3.9840  -18.0630 C   0  0  0  0  0  0  0  0  0  0  0  0
    7.6020    4.7180  -18.4660 C   0  0  0  0  0  0  0  0  0  0  0  0
    7.4890    6.3300  -18.2950 C   0  0  0  0  0  0  0  0  0  0  0  0
    6.1300    6.9430  -18.8160 C   0  0  0  0  0  0  0  0  0  0  0  0
    8.6830    4.2490  -17.5860 O   0  0  0  0  0  0  0  0  0  0  0  0
  5  1  1  0
  3  2  2  0
  7  2  1  0
 11  2  1  0
  4  3  1  0
  5  4  2  0
  6  5  1  0
  7  6  2  0
  9  8  2  0
 13  8  1  0
 14  8  1  0
 10  9  1  0
 11 10  2  0
 12 11  1  0
 13 12  2  0
 15 14  2  0
 18 14  1  0
 16 15  1  0
 17 16  1  0
 18 17  2  0
 19 17  1  0
 21 18  1  0
 20 19  2  0
 22 19  1  0
 21 20  1  0
 25 20  1  0
 23 22  2  0
 24 23  1  0
 25 24  2  0
 26 24  1  0
 27 26  1  0
 28 26  2  0
 29 27  1  0
 30 29  1  0
 34 29  1  0
 31 30  1  0
 32 31  1  0
 33 32  1  0
 35 32  1  0
 34 33  1  0
A    1
O1
A    2
C2
A    3
C3
A    4
C4
A    5
C5
A    6
C6
A    7
C7
A    8
C8
A    9
C9
A   10
C10
A   11
C11
A   12
C12
A   13
C13
A   14
C14
A   15
N15
A   16
N16
A   17
C17
A   18
C18
A   19
C19
A   20
C20
A   21
C21
A   22
C22
A   23
C23
A   24
C24
A   25
C25
A   26
C26
A   27
N27
A   28
O28
A   29
C29
A   30
C30
A   31
C31
A   32
C32
A   33
C33
A   34
C34
A   35
O35
M  END
>  <Id>  (15) 
2E9N_76A_A_1001

>  <ChainId>  (15) 
A

>  <AsymId>  (15) 
B

>  <SeqNum>  (15) 
1001

>  <Name>  (15) 
3-(4'-HYDROXYBIPHENYL-4-YL)-N-(4-HYDROXYCYCLOHEXYL)-1,4-DIHYDROINDENO[1,2-C]PYRAZOLE-6-CARBOXAMIDE

>  <SystematicName>  (15) 
N-(4-hydroxycyclohexyl)-3-[4-(4-hydroxyphenyl)phenyl]-1,4-dihydroindeno[2,1-d]pyrazole-6-carboxamide

>  <Synonyms>  (15) 
3-(4'-HYDROXY-BIPHENYL-4-YL)-1,4-DIHYDRO-INDENO[1,2-C]PYRAZOLE-6-CARBOXYLIC ACID (4-HYDROXY-CYCLOHEXYL)-AMIDE

>  <Type>  (15) 
NON-POLYMER

>  <Formula>  (15) 
C29 H27 N3 O3

>  <ObservedFormula>  (15) 
C29 N3 O3

>  <MolecularWeight>  (15) 
465.543

>  <ModifiedDate>  (15) 
2011-06-04

>  <Parent>  (15) 


>  <OneLetterCode>  (15) 


>  <SubcomponentList>  (15) 


>  <AmbiguousFlag>  (15) 


>  <InsertionCode>  (15) 


>  <InstanceId>  (15) 
2E9N_76A_A_1001

>  <ChemCompId>  (15) 
76A

>  <PdbId>  (15) 
2E9N

>  <ResidueNumber>  (15) 
1001

>  <InChI>  (15) 
InChI=1S/C29H27N3O3/c33-23-10-5-18(6-11-23)17-1-3-19(4-2-17)27-26-16-21-15-20(7-14-25(21)28(26)32-31-27)29(35)30-22-8-12-24(34)13-9-22/h1-7,10-11,14-15,22,24,33-34H,8-9,12-13,16H2,(H,30,35)(H,31,32)/t22-,24-

>  <InChIKey>  (15) 
VKPCXCHYSBVEMW-HCGLCNNCSA-N

>  <SMILES>  (15) 
c1cc(ccc1c2ccc(cc2)O)c3c4c([nH]n3)-c5ccc(cc5C4)C(=O)NC6CCC(CC6)O

>  <MissingHeavyAtoms>  (15) 
0

>  <Model>  (15) 
1

>  <AltIds>  (15) 


>  <pKI>  (15) 
8.2

>  <ChemblID>  (15) 
CHEMBL438485

>  <standardized_canonical_smiles>  (15) 
O=C(N[C@H]1CC[C@H](O)CC1)c1ccc2c(c1)Cc1c(-c3ccc(-c4ccc(O)cc4)cc3)n[nH]c1-2

$$$$
2GDO_12C_A_298
     RDKit          3D

 30 35  0  0  0  0  0  0  0  0999 V2000
    4.9190   -1.4740   46.0170 C   0  0  0  0  0  0  0  0  0  0  0  0
    5.7240   -2.3230   45.2280 C   0  0  0  0  0  0  0  0  0  0  0  0
    7.0500   -2.0020   44.9310 C   0  0  0  0  0  0  0  0  0  0  0  0
    7.9820   -3.0800   43.9710 Cl  0  0  0  0  0  0  0  0  0  0  0  0
    7.6190   -0.8190   45.4080 C   0  0  0  0  0  0  0  0  0  0  0  0
    6.8460    0.0470   46.2000 C   0  0  0  0  0  0  0  0  0  0  0  0
    5.5110   -0.2840   46.4980 C   0  0  0  0  0  0  0  0  0  0  0  0
    4.7610    0.5870   47.3010 N   0  0  0  0  0  0  0  0  0  0  0  0
    3.4510    0.3510   47.6640 C   0  0  0  0  0  0  0  0  0  0  0  0
    2.8410    1.1550   48.3750 O   0  0  0  0  0  0  0  0  0  0  0  0
    2.8010   -0.9050   47.1480 C   0  0  0  0  0  0  0  0  0  0  0  0
    1.4280   -1.2210   47.4900 C   0  0  0  0  0  0  0  0  0  0  0  0
    3.5020   -1.7810   46.3620 C   0  0  0  0  0  0  0  0  0  0  0  0
    2.8960   -2.9400   45.8680 N   0  0  0  0  0  0  0  0  0  0  0  0
    2.8120   -3.5020   44.5280 C   0  0  0  0  0  0  0  0  0  0  0  0
    0.6910   -2.2720   47.1330 N   0  0  0  0  0  0  0  0  0  0  0  0
   -0.5410   -2.0940   47.7090 C   0  0  0  0  0  0  0  0  0  0  0  0
   -0.5810   -0.9050   48.4350 C   0  0  0  0  0  0  0  0  0  0  0  0
    0.6740   -0.3690   48.2810 N   0  0  0  0  0  0  0  0  0  0  0  0
   -1.6910   -2.9130   47.6500 C   0  0  0  0  0  0  0  0  0  0  0  0
   -2.8470   -2.5020   48.3340 C   0  0  0  0  0  0  0  0  0  0  0  0
   -2.8590   -1.3000   49.0600 C   0  0  0  0  0  0  0  0  0  0  0  0
   -1.7210   -0.4710   49.1290 C   0  0  0  0  0  0  0  0  0  0  0  0
    1.4170   -3.1860   43.9150 C   0  0  0  0  0  0  0  0  0  0  0  0
    0.7180   -4.4950   43.5420 N   0  0  0  0  0  0  0  0  0  0  0  0
    1.5400   -5.2440   42.5060 C   0  0  0  0  0  0  0  0  0  0  0  0
    2.9130   -5.5700   43.1130 C   0  0  0  0  0  0  0  0  0  0  0  0
    0.5150   -5.3690   44.7760 C   0  0  0  0  0  0  0  0  0  0  0  0
    1.8830   -5.6980   45.3820 C   0  0  0  0  0  0  0  0  0  0  0  0
    3.0100   -5.0400   44.5640 C   0  0  0  0  0  0  0  0  0  0  0  0
  2  1  2  0
  7  1  1  0
 13  1  1  0
  3  2  1  0
  4  3  1  0
  5  3  2  0
  6  5  1  0
  7  6  2  0
  8  7  1  0
  9  8  1  0
 10  9  2  0
 11  9  1  0
 12 11  1  0
 13 11  2  0
 16 12  1  0
 19 12  2  0
 14 13  1  0
 15 14  1  0
 24 15  1  0
 30 15  1  0
 17 16  1  0
 18 17  2  0
 20 17  1  0
 19 18  1  0
 23 18  1  0
 21 20  2  0
 22 21  1  0
 23 22  2  0
 25 24  1  0
 26 25  1  0
 28 25  1  0
 27 26  1  0
 30 27  1  0
 29 28  1  0
 30 29  1  0
A    1
C1
A    2
C2
A    3
C3
A    4
CL
A    5
C4
A    6
C5
A    7
C6
A    8
N1
A    9
C7
A   10
O1
A   11
C8
A   12
C9
A   13
C10
A   14
N2
A   15
C11
A   16
N3
A   17
C12
A   18
C13
A   19
N4
A   20
C14
A   21
C15
A   22
C16
A   23
C17
A   24
C18
A   25
N5
A   26
C19
A   27
C20
A   28
C21
A   29
C22
A   30
C23
M  END
>  <Id>  (16) 
2GDO_12C_A_298

>  <ChainId>  (16) 
A

>  <AsymId>  (16) 
D

>  <SeqNum>  (16) 
298

>  <Name>  (16) 
4-[(3S)-1-AZABICYCLO[2.2.2]OCT-3-YLAMINO]-3-(1H-BENZIMIDAZOL-2-YL)-6-CHLOROQUINOLIN-2(1H)-ONE

>  <SystematicName>  (16) 
4-[[(8S)-1-azabicyclo[2.2.2]octan-8-yl]amino]-3-(1H-benzimidazol-2-yl)-6-chloro-1H-quinolin-2-one

>  <Synonyms>  (16) 


>  <Type>  (16) 
NON-POLYMER

>  <Formula>  (16) 
C23 H22 Cl N5 O

>  <ObservedFormula>  (16) 
C23 Cl N5 O

>  <MolecularWeight>  (16) 
419.907

>  <ModifiedDate>  (16) 
2011-06-04

>  <Parent>  (16) 


>  <OneLetterCode>  (16) 


>  <SubcomponentList>  (16) 


>  <AmbiguousFlag>  (16) 
N

>  <InsertionCode>  (16) 


>  <InstanceId>  (16) 
2GDO_12C_A_298

>  <ChemCompId>  (16) 
12C

>  <PdbId>  (16) 
2GDO

>  <ResidueNumber>  (16) 
298

>  <InChI>  (16) 
InChI=1S/C23H22ClN5O/c24-14-5-6-16-15(11-14)21(25-19-12-29-9-7-13(19)8-10-29)20(23(30)28-16)22-26-17-3-1-2-4-18(17)27-22/h1-6,11,13,19H,7-10,12H2,(H,26,27)(H2,25,28,30)/t19-/m1/s1

>  <InChIKey>  (16) 
MOVBBVMDHIRCTG-LJQANCHMSA-N

>  <SMILES>  (16) 
c1ccc2c(c1)[nH]c(n2)C3=C(c4cc(ccc4NC3=O)Cl)N[C@@H]5CN6CCC5CC6

>  <MissingHeavyAtoms>  (16) 
0

>  <Model>  (16) 
1

>  <AltIds>  (16) 


>  <pKI>  (16) 
7.1

>  <ChemblID>  (16) 
CHEMBL550071

>  <standardized_canonical_smiles>  (16) 
O=c1[nH]c2ccc(Cl)cc2c(N[C@H]2C[N@]3CC[C@@H]2CC3)c1-c1nc2ccccc2[nH]1

$$$$
4FTT_6HK_A_301
     RDKit          3D

 27 30  0  0  0  0  0  0  0  0999 V2000
   16.3580   -1.8670    8.9940 O   0  0  0  0  0  0  0  0  0  0  0  0
   17.0130   -2.8510    9.3350 C   0  0  0  0  0  0  0  0  0  0  0  0
   18.3470   -2.8850    9.1240 N   0  0  0  0  0  0  0  0  0  0  0  0
   19.4010   -3.8160    9.2770 C   0  0  0  0  0  0  0  0  0  0  0  0
   19.3610   -4.8650   10.2020 C   0  0  0  0  0  0  0  0  0  0  0  0
   20.4250   -5.7650   10.2610 C   0  0  0  0  0  0  0  0  0  0  0  0
   21.5230   -5.6030    9.4340 C   0  0  0  0  0  0  0  0  0  0  0  0
   20.5240   -3.6680    8.4590 C   0  0  0  0  0  0  0  0  0  0  0  0
   21.5950   -4.5520    8.5310 C   0  0  0  0  0  0  0  0  0  0  0  0
   22.7960   -4.3830    7.6240 C   0  0  0  0  0  0  0  0  0  0  0  0
   24.0000   -3.8010    8.3140 C   0  0  0  0  0  0  0  0  0  0  0  0
   24.4510   -4.6180    9.2690 O   0  0  0  0  0  0  0  0  0  0  0  0
   25.5610   -4.1540   10.0820 C   0  0  0  0  0  0  0  0  0  0  0  0
   24.5150   -2.7460    8.0450 O   0  0  0  0  0  0  0  0  0  0  0  0
   16.3210   -3.9990   10.0020 C   0  0  0  0  0  0  0  0  0  0  0  0
   16.9420   -4.9510   10.8380 C   0  0  0  0  0  0  0  0  0  0  0  0
   18.3220   -4.9920   11.1450 N   0  0  0  0  0  0  0  0  0  0  0  0
   14.9250   -3.9950    9.9350 C   0  0  0  0  0  0  0  0  0  0  0  0
   14.1620   -4.8580   10.7030 C   0  0  0  0  0  0  0  0  0  0  0  0
   14.7710   -5.8030   11.5220 C   0  0  0  0  0  0  0  0  0  0  0  0
   16.1620   -5.8450   11.5690 C   0  0  0  0  0  0  0  0  0  0  0  0
   14.0090   -6.6680   12.4590 C   0  0  0  0  0  0  0  0  0  0  0  0
   12.6510   -6.6510   13.0120 N   0  0  0  0  0  0  0  0  0  0  0  0
   11.5500   -5.7230   12.7590 C   0  0  0  0  0  0  0  0  0  0  0  0
   12.5940   -7.6550   13.9150 C   0  0  0  0  0  0  0  0  0  0  0  0
   13.7110   -8.3240   14.0630 N   0  0  0  0  0  0  0  0  0  0  0  0
   14.6000   -7.7400   13.1900 C   0  0  0  0  0  0  0  0  0  0  0  0
  2  1  2  0
  3  2  1  0
 15  2  1  0
  4  3  1  0
  5  4  2  0
  8  4  1  0
  6  5  1  0
 17  5  1  0
  7  6  2  0
  9  7  1  0
  9  8  2  0
 10  9  1  0
 11 10  1  0
 12 11  1  0
 14 11  2  0
 13 12  1  0
 16 15  2  0
 18 15  1  0
 17 16  1  0
 21 16  1  0
 19 18  2  0
 20 19  1  0
 21 20  2  0
 22 20  1  0
 23 22  1  0
 27 22  2  0
 24 23  1  0
 25 23  1  0
 26 25  2  0
 27 26  1  0
A    1
O2
A    2
C13
A    3
N2
A    4
C14
A    5
C6
A    6
C5
A    7
C4
A    8
C15
A    9
C3
A   10
C2
A   11
C1
A   12
O3
A   13
C20
A   14
O1
A   15
C12
A   16
C7
A   17
N1
A   18
C11
A   19
C10
A   20
C9
A   21
C8
A   22
C16
A   23
N4
A   24
C19
A   25
C18
A   26
N3
A   27
C17
M  END
>  <Id>  (17) 
4FTT_6HK_A_301

>  <ChainId>  (17) 
A

>  <AsymId>  (17) 
B

>  <SeqNum>  (17) 
301

>  <Name>  (17) 
methyl [3-(1-methyl-1H-imidazol-5-yl)-11-oxo-10,11-dihydro-5H-dibenzo[b,e][1,4]diazepin-8-yl]acetate

>  <SystematicName>  (17) 
methyl 2-[9-(3-methylimidazol-4-yl)-6-oxidanylidene-5,11-dihydrobenzo[b][1,4]benzodiazepin-3-yl]ethanoate

>  <Synonyms>  (17) 


>  <Type>  (17) 
NON-POLYMER

>  <Formula>  (17) 
C20 H18 N4 O3

>  <ObservedFormula>  (17) 
C20 N4 O3

>  <MolecularWeight>  (17) 
362.382

>  <ModifiedDate>  (17) 
2012-08-17

>  <Parent>  (17) 


>  <OneLetterCode>  (17) 


>  <SubcomponentList>  (17) 


>  <AmbiguousFlag>  (17) 
N

>  <InsertionCode>  (17) 


>  <InstanceId>  (17) 
4FTT_6HK_A_301

>  <ChemCompId>  (17) 
6HK

>  <PdbId>  (17) 
4FTT

>  <ResidueNumber>  (17) 
301

>  <InChI>  (17) 
InChI=1S/C20H18N4O3/c1-24-11-21-10-18(24)13-4-5-14-16(9-13)22-15-6-3-12(8-19(25)27-2)7-17(15)23-20(14)26/h3-7,9-11,22H,8H2,1-2H3,(H,23,26)

>  <InChIKey>  (17) 
VHPMIVHLGSAOKI-UHFFFAOYSA-N

>  <SMILES>  (17) 
Cn1cncc1c2ccc3c(c2)Nc4ccc(cc4NC3=O)CC(=O)OC

>  <MissingHeavyAtoms>  (17) 
0

>  <Model>  (17) 
1

>  <AltIds>  (17) 


>  <pKI>  (17) 
7.1

>  <ChemblID>  (17) 
CHEMBL550073

>  <standardized_canonical_smiles>  (17) 
COC(=O)Cc1ccc2c(c1)NC(=O)c1ccc(-c3cncn3C)cc1N2

$$$$
4FTU_7HK_A_301
     RDKit          3D

 28 31  0  0  0  0  0  0  0  0999 V2000
   16.3360   -1.9990    9.0050 O   0  0  0  0  0  0  0  0  0  0  0  0
   17.1090   -2.9170    9.2840 C   0  0  0  0  0  0  0  0  0  0  0  0
   18.4230   -2.8040    9.0060 N   0  0  0  0  0  0  0  0  0  0  0  0
   19.5280   -3.6820    9.0610 C   0  0  0  0  0  0  0  0  0  0  0  0
   19.6010   -4.7800    9.9260 C   0  0  0  0  0  0  0  0  0  0  0  0
   20.6910   -5.6450    9.8400 C   0  0  0  0  0  0  0  0  0  0  0  0
   21.7180   -5.3850    8.9480 C   0  0  0  0  0  0  0  0  0  0  0  0
   20.5740   -3.4390    8.1740 C   0  0  0  0  0  0  0  0  0  0  0  0
   21.6880   -4.2690    8.1250 C   0  0  0  0  0  0  0  0  0  0  0  0
   22.8710   -3.9160    7.2500 C   0  0  0  0  0  0  0  0  0  0  0  0
   22.6870   -4.3430    5.8210 C   0  0  0  0  0  0  0  0  0  0  0  0
   22.1290   -5.5500    5.7540 O   0  0  0  0  0  0  0  0  0  0  0  0
   21.8700   -6.0900    4.4370 C   0  0  0  0  0  0  0  0  0  0  0  0
   23.0000   -3.6980    4.8550 O   0  0  0  0  0  0  0  0  0  0  0  0
   16.5750   -4.1640    9.9220 C   0  0  0  0  0  0  0  0  0  0  0  0
   17.2930   -5.0030   10.8020 C   0  0  0  0  0  0  0  0  0  0  0  0
   18.6890   -4.9600   10.9840 N   0  0  0  0  0  0  0  0  0  0  0  0
   15.2080   -4.3890    9.7610 C   0  0  0  0  0  0  0  0  0  0  0  0
   14.5460   -5.3540   10.4950 C   0  0  0  0  0  0  0  0  0  0  0  0
   15.2370   -6.1310   11.4140 C   0  0  0  0  0  0  0  0  0  0  0  0
   16.6110   -5.9650   11.5430 C   0  0  0  0  0  0  0  0  0  0  0  0
   14.5840   -7.0700   12.2500 N   0  0  0  0  0  0  0  0  0  0  0  0
   13.2580   -7.0680   12.7460 C   0  0  0  0  0  0  0  0  0  0  0  0
   12.7240   -8.2590   13.2210 C   0  0  0  0  0  0  0  0  0  0  0  0
   11.4020   -8.2650   13.6300 C   0  0  0  0  0  0  0  0  0  0  0  0
   10.6030   -7.1910   13.5900 N   0  0  0  0  0  0  0  0  0  0  0  0
   11.1420   -6.0530   13.1470 C   0  0  0  0  0  0  0  0  0  0  0  0
   12.4560   -5.9330   12.7370 C   0  0  0  0  0  0  0  0  0  0  0  0
  2  1  2  0
  3  2  1  0
 15  2  1  0
  4  3  1  0
  5  4  2  0
  8  4  1  0
  6  5  1  0
 17  5  1  0
  7  6  2  0
  9  7  1  0
  9  8  2  0
 10  9  1  0
 11 10  1  0
 12 11  1  0
 14 11  2  0
 13 12  1  0
 16 15  2  0
 18 15  1  0
 17 16  1  0
 21 16  1  0
 19 18  2  0
 20 19  1  0
 21 20  2  0
 22 20  1  0
 23 22  1  0
 24 23  2  0
 28 23  1  0
 25 24  1  0
 26 25  2  0
 27 26  1  0
 28 27  2  0
A    1
O2
A    2
C18
A    3
N4
A    4
C19
A    5
C6
A    6
C5
A    7
C4
A    8
C20
A    9
C3
A   10
C2
A   11
C1
A   12
O3
A   13
C21
A   14
O1
A   15
C17
A   16
C7
A   17
N1
A   18
C16
A   19
C15
A   20
C9
A   21
C8
A   22
N2
A   23
C10
A   24
C14
A   25
C13
A   26
N3
A   27
C12
A   28
C11
M  END
>  <Id>  (18) 
4FTU_7HK_A_301

>  <ChainId>  (18) 
A

>  <AsymId>  (18) 
B

>  <SeqNum>  (18) 
301

>  <Name>  (18) 
methyl [11-oxo-3-(pyridin-4-ylamino)-10,11-dihydro-5H-dibenzo[b,e][1,4]diazepin-8-yl]acetate

>  <SystematicName>  (18) 
methyl 2-[6-oxidanylidene-9-(pyridin-4-ylamino)-5,11-dihydrobenzo[b][1,4]benzodiazepin-3-yl]ethanoate

>  <Synonyms>  (18) 


>  <Type>  (18) 
NON-POLYMER

>  <Formula>  (18) 
C21 H18 N4 O3

>  <ObservedFormula>  (18) 
C21 N4 O3

>  <MolecularWeight>  (18) 
374.393

>  <ModifiedDate>  (18) 
2012-08-17

>  <Parent>  (18) 


>  <OneLetterCode>  (18) 


>  <SubcomponentList>  (18) 


>  <AmbiguousFlag>  (18) 
N

>  <InsertionCode>  (18) 


>  <InstanceId>  (18) 
4FTU_7HK_A_301

>  <ChemCompId>  (18) 
7HK

>  <PdbId>  (18) 
4FTU

>  <ResidueNumber>  (18) 
301

>  <InChI>  (18) 
InChI=1S/C21H18N4O3/c1-28-20(26)11-13-2-5-17-19(10-13)25-21(27)16-4-3-15(12-18(16)24-17)23-14-6-8-22-9-7-14/h2-10,12,24H,11H2,1H3,(H,22,23)(H,25,27)

>  <InChIKey>  (18) 
UHXSMHRHMWNZNO-UHFFFAOYSA-N

>  <SMILES>  (18) 
COC(=O)Cc1ccc2c(c1)NC(=O)c3ccc(cc3N2)Nc4ccncc4

>  <MissingHeavyAtoms>  (18) 
0

>  <Model>  (18) 
1

>  <AltIds>  (18) 


>  <pKI>  (18) 
8.0

>  <ChemblID>  (18) 
CHEMBL564542

>  <standardized_canonical_smiles>  (18) 
COC(=O)Cc1ccc2c(c1)NC(=O)c1ccc(Nc3ccncc3)cc1N2

$$$$
4FTR_5HK_A_301
     RDKit          3D

 33 36  0  0  0  0  0  0  0  0999 V2000
   24.8180   -5.7370    7.7670 O   0  0  0  0  0  0  0  0  0  0  0  0
   23.8200   -5.3480    7.1750 C   0  0  0  0  0  0  0  0  0  0  0  0
   23.3330   -6.0050    6.1050 N   0  0  0  0  0  0  0  0  0  0  0  0
   23.8410   -7.3210    5.7090 C   0  0  0  0  0  0  0  0  0  0  0  0
   22.2290   -5.5070    5.2810 C   0  0  0  0  0  0  0  0  0  0  0  0
   23.1100   -4.0840    7.6270 C   0  0  0  0  0  0  0  0  0  0  0  0
   21.8360   -4.3730    8.3940 C   0  0  0  0  0  0  0  0  0  0  0  0
   20.7290   -3.5440    8.2610 C   0  0  0  0  0  0  0  0  0  0  0  0
   21.7630   -5.4380    9.2850 C   0  0  0  0  0  0  0  0  0  0  0  0
   20.6290   -5.6550   10.0500 C   0  0  0  0  0  0  0  0  0  0  0  0
   19.5350   -4.8020    9.9360 C   0  0  0  0  0  0  0  0  0  0  0  0
   19.5640   -3.7600    9.0010 C   0  0  0  0  0  0  0  0  0  0  0  0
   18.4740   -2.8900    8.7960 N   0  0  0  0  0  0  0  0  0  0  0  0
   17.1710   -2.8060    9.1370 C   0  0  0  0  0  0  0  0  0  0  0  0
   16.5180   -1.7970    8.8710 O   0  0  0  0  0  0  0  0  0  0  0  0
   18.5120   -4.9100   10.8970 N   0  0  0  0  0  0  0  0  0  0  0  0
   17.1280   -4.9000   10.6440 C   0  0  0  0  0  0  0  0  0  0  0  0
   16.4950   -3.9660    9.8020 C   0  0  0  0  0  0  0  0  0  0  0  0
   15.1160   -4.0590    9.6280 C   0  0  0  0  0  0  0  0  0  0  0  0
   14.3730   -5.0100   10.3020 C   0  0  0  0  0  0  0  0  0  0  0  0
   16.3630   -5.8590   11.2970 C   0  0  0  0  0  0  0  0  0  0  0  0
   14.9780   -5.9230   11.1640 C   0  0  0  0  0  0  0  0  0  0  0  0
   14.1750   -6.7770   12.0930 C   0  0  0  0  0  0  0  0  0  0  0  0
   12.8580   -6.4400   12.4160 C   0  0  0  0  0  0  0  0  0  0  0  0
   12.0430   -7.2770   13.1680 C   0  0  0  0  0  0  0  0  0  0  0  0
   10.7650   -6.9590   13.5580 O   0  0  0  0  0  0  0  0  0  0  0  0
   10.2410   -5.6850   13.1890 C   0  0  0  0  0  0  0  0  0  0  0  0
   14.6630   -8.0120   12.5330 C   0  0  0  0  0  0  0  0  0  0  0  0
   13.8720   -8.8800   13.2590 C   0  0  0  0  0  0  0  0  0  0  0  0
   12.5770   -8.5160   13.5850 C   0  0  0  0  0  0  0  0  0  0  0  0
   11.8160   -9.4680   14.4020 N   0  0  0  0  0  0  0  0  0  0  0  0
   12.4270  -10.1890   15.1760 O   0  0  0  0  0  0  0  0  0  0  0  0
   10.6070   -9.5280   14.2520 O   0  0  0  0  0  0  0  0  0  0  0  0
  2  1  2  0
  3  2  1  0
  6  2  1  0
  4  3  1  0
  5  3  1  0
  7  6  1  0
  8  7  2  0
  9  7  1  0
 12  8  1  0
 10  9  2  0
 11 10  1  0
 12 11  2  0
 16 11  1  0
 13 12  1  0
 14 13  1  0
 15 14  2  0
 18 14  1  0
 17 16  1  0
 18 17  2  0
 21 17  1  0
 19 18  1  0
 20 19  2  0
 22 20  1  0
 22 21  2  0
 23 22  1  0
 24 23  2  0
 28 23  1  0
 25 24  1  0
 26 25  1  0
 30 25  2  0
 27 26  1  0
 29 28  2  0
 30 29  1  0
 31 30  1  0
 32 31  2  0
 33 31  1  0
M  CHG  2  31   1  33  -1
A    1
O5
A    2
C17
A    3
N3
A    4
C19
A    5
C18
A    6
C16
A    7
C15
A    8
C14
A    9
C20
A   10
C21
A   11
C22
A   12
C13
A   13
N2
A   14
C12
A   15
O4
A   16
N4
A   17
C23
A   18
C11
A   19
C10
A   20
C9
A   21
C24
A   22
C8
A   23
C4
A   24
C5
A   25
C6
A   26
O3
A   27
C7
A   28
C3
A   29
C2
A   30
C1
A   31
N1
A   32
O1
A   33
O2
M  END
>  <Id>  (19) 
4FTR_5HK_A_301

>  <ChainId>  (19) 
A

>  <AsymId>  (19) 
B

>  <SeqNum>  (19) 
301

>  <Name>  (19) 
2-[3-(3-methoxy-4-nitrophenyl)-11-oxo-10,11-dihydro-5H-dibenzo[b,e][1,4]diazepin-8-yl]-N,N-dimethylacetamide

>  <SystematicName>  (19) 
2-[9-(3-methoxy-4-nitro-phenyl)-6-oxidanylidene-5,11-dihydrobenzo[b][1,4]benzodiazepin-3-yl]-N,N-dimethyl-ethanamide

>  <Synonyms>  (19) 


>  <Type>  (19) 
NON-POLYMER

>  <Formula>  (19) 
C24 H22 N4 O5

>  <ObservedFormula>  (19) 
C24 N4 O5

>  <MolecularWeight>  (19) 
446.455

>  <ModifiedDate>  (19) 
2012-08-17

>  <Parent>  (19) 


>  <OneLetterCode>  (19) 


>  <SubcomponentList>  (19) 


>  <AmbiguousFlag>  (19) 
N

>  <InsertionCode>  (19) 


>  <InstanceId>  (19) 
4FTR_5HK_A_301

>  <ChemCompId>  (19) 
5HK

>  <PdbId>  (19) 
4FTR

>  <ResidueNumber>  (19) 
301

>  <InChI>  (19) 
InChI=1S/C24H22N4O5/c1-27(2)23(29)11-14-4-8-18-20(10-14)26-24(30)17-7-5-15(12-19(17)25-18)16-6-9-21(28(31)32)22(13-16)33-3/h4-10,12-13,25H,11H2,1-3H3,(H,26,30)

>  <InChIKey>  (19) 
FDMSWGUJFDPKLS-UHFFFAOYSA-N

>  <SMILES>  (19) 
CN(C)C(=O)Cc1ccc2c(c1)NC(=O)c3ccc(cc3N2)c4ccc(c(c4)OC)[N+](=O)[O-]

>  <MissingHeavyAtoms>  (19) 
0

>  <Model>  (19) 
1

>  <AltIds>  (19) 


>  <pKI>  (19) 
8.2

>  <ChemblID>  (19) 
CHEMBL562875

>  <standardized_canonical_smiles>  (19) 
COc1cc(-c2ccc3c(c2)Nc2ccc(CC(=O)N(C)C)cc2NC3=O)ccc1[N+](=O)[O-]

$$$$
2E9P_77A_A_1001
     RDKit          3D

 26 27  0  0  0  0  0  0  0  0999 V2000
   -3.3000    9.7560  -19.3710 N   0  0  0  0  0  0  0  0  0  0  0  0
   -1.9860    9.3470  -19.5080 C   0  0  0  0  0  0  0  0  0  0  0  0
   -1.0070   10.1470  -20.2140 C   0  0  0  0  0  0  0  0  0  0  0  0
    0.3390    9.6770  -20.3270 C   0  0  0  0  0  0  0  0  0  0  0  0
    0.7500    8.4270  -19.7600 C   0  0  0  0  0  0  0  0  0  0  0  0
   -0.2170    7.6310  -19.0580 C   0  0  0  0  0  0  0  0  0  0  0  0
   -1.6070    8.0820  -18.9220 C   0  0  0  0  0  0  0  0  0  0  0  0
   -2.6530    7.3920  -18.2520 O   0  0  0  0  0  0  0  0  0  0  0  0
   -2.8040    5.9860  -18.4530 C   0  0  0  0  0  0  0  0  0  0  0  0
    1.4800   10.6600  -21.1810 Cl  0  0  0  0  0  0  0  0  0  0  0  0
   -4.1610   10.6840  -20.0090 C   0  0  0  0  0  0  0  0  0  0  0  0
   -3.7820   11.3840  -20.9520 O   0  0  0  0  0  0  0  0  0  0  0  0
   -5.4600   10.8180  -19.5750 N   0  0  0  0  0  0  0  0  0  0  0  0
   -6.1870   10.1910  -18.5640 C   0  0  0  0  0  0  0  0  0  0  0  0
   -5.8760    8.8400  -18.2400 N   0  0  0  0  0  0  0  0  0  0  0  0
   -6.5990    8.1630  -17.2180 C   0  0  0  0  0  0  0  0  0  0  0  0
   -7.6630    8.8830  -16.5110 C   0  0  0  0  0  0  0  0  0  0  0  0
   -7.9650   10.2180  -16.8350 N   0  0  0  0  0  0  0  0  0  0  0  0
   -7.2470   10.8800  -17.8480 C   0  0  0  0  0  0  0  0  0  0  0  0
   -6.2880    6.8130  -16.9130 O   0  0  0  0  0  0  0  0  0  0  0  0
   -6.3830    6.3060  -15.5820 C   0  0  0  0  0  0  0  0  0  0  0  0
   -5.0120    5.6460  -15.2720 C   0  0  0  0  0  0  0  0  0  0  0  0
   -4.2260    6.1630  -14.1190 N   0  0  0  0  0  0  0  0  0  0  0  0
   -4.7050    5.6130  -12.8470 C   0  0  0  0  0  0  0  0  0  0  0  0
   -7.5300    5.2820  -15.5240 C   0  0  0  0  0  0  0  0  0  0  0  0
   -4.2080    7.6380  -14.0420 C   0  0  0  0  0  0  0  0  0  0  0  0
  2  1  1  0
 11  1  1  0
  3  2  2  0
  7  2  1  0
  4  3  1  0
  5  4  2  0
 10  4  1  0
  6  5  1  0
  7  6  2  0
  8  7  1  0
  9  8  1  0
 12 11  2  0
 13 11  1  0
 14 13  1  0
 15 14  2  0
 19 14  1  0
 16 15  1  0
 17 16  2  0
 20 16  1  0
 18 17  1  0
 19 18  2  0
 21 20  1  0
 22 21  1  0
 25 21  1  0
 23 22  1  0
 24 23  1  0
 26 23  1  0
A    1
N1
A    2
C2
A    3
C3
A    4
C4
A    5
C5
A    6
C6
A    7
C7
A    8
O8
A    9
C9
A   10
CL10
A   11
C11
A   12
O12
A   13
N13
A   14
C14
A   15
N15
A   16
C16
A   17
C17
A   18
N18
A   19
C19
A   20
O20
A   21
C21
A   22
C22
A   23
N23
A   24
C24
A   25
C25
A   26
C26
M  END
>  <Id>  (20) 
2E9P_77A_A_1001

>  <ChainId>  (20) 
A

>  <AsymId>  (20) 
B

>  <SeqNum>  (20) 
1001

>  <Name>  (20) 
1-(5-CHLORO-2-METHOXYPHENYL)-3-{6-[2-(DIMETHYLAMINO)-1-METHYLETHOXY]PYRAZIN-2-YL}UREA

>  <SystematicName>  (20) 
1-(5-chloro-2-methoxy-phenyl)-3-[6-[(2S)-1-dimethylaminopropan-2-yl]oxypyrazin-2-yl]urea

>  <Synonyms>  (20) 


>  <Type>  (20) 
NON-POLYMER

>  <Formula>  (20) 
C17 H22 Cl N5 O3

>  <ObservedFormula>  (20) 
C17 Cl N5 O3

>  <MolecularWeight>  (20) 
379.841

>  <ModifiedDate>  (20) 
2011-06-04

>  <Parent>  (20) 


>  <OneLetterCode>  (20) 


>  <SubcomponentList>  (20) 


>  <AmbiguousFlag>  (20) 


>  <InsertionCode>  (20) 


>  <InstanceId>  (20) 
2E9P_77A_A_1001

>  <ChemCompId>  (20) 
77A

>  <PdbId>  (20) 
2E9P

>  <ResidueNumber>  (20) 
1001

>  <InChI>  (20) 
InChI=1S/C17H22ClN5O3/c1-11(10-23(2)3)26-16-9-19-8-15(21-16)22-17(24)20-13-7-12(18)5-6-14(13)25-4/h5-9,11H,10H2,1-4H3,(H2,20,21,22,24)/t11-/m0/s1

>  <InChIKey>  (20) 
GIAYFZLMPSVQDV-NSHDSACASA-N

>  <SMILES>  (20) 
C[C@@H](CN(C)C)Oc1cncc(n1)NC(=O)Nc2cc(ccc2OC)Cl

>  <MissingHeavyAtoms>  (20) 
0

>  <Model>  (20) 
1

>  <AltIds>  (20) 


>  <pKI>  (20) 
7.7

>  <ChemblID>  (20) 
CHEMBL550821

>  <standardized_canonical_smiles>  (20) 
COc1ccc(Cl)cc1NC(=O)Nc1cncc(OC(C)CN(C)C)n1

$$$$
4FSN_A58_A_301
     RDKit          3D

 30 34  0  0  0  0  0  0  0  0999 V2000
   25.1960   -7.9580    8.9630 C   0  0  0  0  0  0  0  0  0  0  0  0
   22.1820   -7.6220    7.8010 C   0  0  0  0  0  0  0  0  0  0  0  0
   23.0450   -8.2380    6.7060 C   0  0  0  0  0  0  0  0  0  0  0  0
   23.9620   -9.3540    7.2230 C   0  0  0  0  0  0  0  0  0  0  0  0
   24.3280   -9.1920    8.6940 C   0  0  0  0  0  0  0  0  0  0  0  0
   23.0730   -9.2290    9.5580 C   0  0  0  0  0  0  0  0  0  0  0  0
   21.8390   -8.6590    8.8560 C   0  0  0  0  0  0  0  0  0  0  0  0
   22.8350   -6.3580    8.2020 N   0  0  0  0  0  0  0  0  0  0  0  0
   22.4500   -5.6720    9.4380 C   0  0  0  0  0  0  0  0  0  0  0  0
   21.1400   -4.9400    9.2900 C   0  0  0  0  0  0  0  0  0  0  0  0
   20.0020   -5.3580    9.9710 C   0  0  0  0  0  0  0  0  0  0  0  0
   18.7860   -4.6990    9.8290 C   0  0  0  0  0  0  0  0  0  0  0  0
   18.6970   -3.5850    9.0000 C   0  0  0  0  0  0  0  0  0  0  0  0
   19.8350   -3.1540    8.3180 C   0  0  0  0  0  0  0  0  0  0  0  0
   21.0350   -3.8280    8.4630 C   0  0  0  0  0  0  0  0  0  0  0  0
   17.4390   -5.0130   10.4090 C   0  0  0  0  0  0  0  0  0  0  0  0
   16.5600   -3.9640    9.8680 C   0  0  0  0  0  0  0  0  0  0  0  0
   17.3220   -3.1110    9.0310 C   0  0  0  0  0  0  0  0  0  0  0  0
   15.3080   -3.3890    9.9210 C   0  0  0  0  0  0  0  0  0  0  0  0
   15.3570   -2.2760    9.1530 N   0  0  0  0  0  0  0  0  0  0  0  0
   16.5800   -2.0860    8.5900 N   0  0  0  0  0  0  0  0  0  0  0  0
   14.1140   -3.8040   10.6920 C   0  0  0  0  0  0  0  0  0  0  0  0
   12.9520   -3.0350   10.6860 C   0  0  0  0  0  0  0  0  0  0  0  0
   11.8660   -3.3920   11.4660 C   0  0  0  0  0  0  0  0  0  0  0  0
   11.8950   -4.5530   12.2410 C   0  0  0  0  0  0  0  0  0  0  0  0
   13.0440   -5.3380   12.2210 C   0  0  0  0  0  0  0  0  0  0  0  0
   14.1420   -4.9600   11.4690 C   0  0  0  0  0  0  0  0  0  0  0  0
   10.7090   -4.9670   13.0480 C   0  0  0  0  0  0  0  0  0  0  0  0
   10.8400   -6.1110   13.6550 O   0  0  0  0  0  0  0  0  0  0  0  0
    9.6990   -4.2590   13.1520 O   0  0  0  0  0  0  0  0  0  0  0  0
  5  1  1  0
  3  2  1  0
  7  2  1  0
  8  2  1  0
  4  3  1  0
  5  4  1  0
  6  5  1  0
  7  6  1  0
  9  8  1  0
 10  9  1  0
 11 10  2  0
 15 10  1  0
 12 11  1  0
 13 12  2  0
 16 12  1  0
 14 13  1  0
 18 13  1  0
 15 14  2  0
 17 16  1  0
 18 17  2  0
 19 17  1  0
 21 18  1  0
 20 19  2  0
 22 19  1  0
 21 20  1  0
 23 22  2  0
 27 22  1  0
 24 23  1  0
 25 24  2  0
 26 25  1  0
 28 25  1  0
 27 26  2  0
 29 28  1  0
 30 28  2  0
A    1
C1
A    2
C2
A    3
C3
A    4
C4
A    5
C5
A    6
C6
A    7
C7
A    8
N8
A    9
C9
A   10
C10
A   11
C11
A   12
C12
A   13
C13
A   14
C14
A   15
C15
A   16
C16
A   17
C17
A   18
C18
A   19
C19
A   20
N20
A   21
N21
A   22
C22
A   23
C23
A   24
C24
A   25
C25
A   26
C26
A   27
C27
A   28
C28
A   29
O29
A   30
O30
M  END
>  <Id>  (21) 
4FSN_A58_A_301

>  <ChainId>  (21) 
A

>  <AsymId>  (21) 
B

>  <SeqNum>  (21) 
301

>  <Name>  (21) 
4-(6-{[(4-METHYLCYCLOHEXYL)AMINO]METHYL}-1,4-DIHYDROINDENO[1,2-C]PYRAZOL-3-YL)BENZOIC ACID

>  <SystematicName>  (21) 
4-[6-[[(4-methylcyclohexyl)amino]methyl]-1,4-dihydroindeno[2,3-d]pyrazol-3-yl]benzoic acid

>  <Synonyms>  (21) 


>  <Type>  (21) 
NON-POLYMER

>  <Formula>  (21) 
C25 H27 N3 O2

>  <ObservedFormula>  (21) 
C25 N3 O2

>  <MolecularWeight>  (21) 
401.501

>  <ModifiedDate>  (21) 
2011-06-04

>  <Parent>  (21) 


>  <OneLetterCode>  (21) 


>  <SubcomponentList>  (21) 


>  <AmbiguousFlag>  (21) 


>  <InsertionCode>  (21) 


>  <InstanceId>  (21) 
4FSN_A58_A_301

>  <ChemCompId>  (21) 
A58

>  <PdbId>  (21) 
4FSN

>  <ResidueNumber>  (21) 
301

>  <InChI>  (21) 
InChI=1S/C25H27N3O2/c1-15-2-9-20(10-3-15)26-14-16-4-11-21-19(12-16)13-22-23(27-28-24(21)22)17-5-7-18(8-6-17)25(29)30/h4-8,11-12,15,20,26H,2-3,9-10,13-14H2,1H3,(H,27,28)(H,29,30)/t15-,20+

>  <InChIKey>  (21) 
MEDLHZCDTXWLOC-GSXCWMCISA-N

>  <SMILES>  (21) 
CC1CCC(CC1)NCc2ccc-3c(c2)Cc4c3[nH]nc4c5ccc(cc5)C(=O)O

>  <MissingHeavyAtoms>  (21) 
0

>  <Model>  (21) 
1

>  <AltIds>  (21) 


>  <pKI>  (21) 
7.7

>  <ChemblID>  (21) 
CHEMBL242737

>  <standardized_canonical_smiles>  (21) 
C[C@H]1CC[C@@H](NCc2ccc3c(c2)Cc2c(-c4ccc(C(=O)O)cc4)n[nH]c2-3)CC1

$$$$
2E9O_A58_A_1001
     RDKit          3D

 30 34  0  0  0  0  0  0  0  0999 V2000
   -5.0410   10.3910  -18.9290 C   0  0  0  0  0  0  0  0  0  0  0  0
   -1.6660   10.2810  -19.9980 C   0  0  0  0  0  0  0  0  0  0  0  0
   -9.6960    8.5740  -15.6940 C   0  0  0  0  0  0  0  0  0  0  0  0
   -6.2170    9.8790  -18.1000 C   0  0  0  0  0  0  0  0  0  0  0  0
   -6.2230    8.5820  -17.4050 C   0  0  0  0  0  0  0  0  0  0  0  0
    0.9070    8.9250  -19.8020 C   0  0  0  0  0  0  0  0  0  0  0  0
   -9.6480    7.5760  -15.0240 O   0  0  0  0  0  0  0  0  0  0  0  0
   -0.5430   10.7690  -20.7650 C   0  0  0  0  0  0  0  0  0  0  0  0
   -2.9930   10.6720  -19.8550 C   0  0  0  0  0  0  0  0  0  0  0  0
    3.0790    6.0660  -21.9610 C   0  0  0  0  0  0  0  0  0  0  0  0
    3.1670    5.9420  -20.4040 C   0  0  0  0  0  0  0  0  0  0  0  0
    2.2110    8.1770  -19.6710 C   0  0  0  0  0  0  0  0  0  0  0  0
   -1.5190    9.1080  -19.1170 C   0  0  0  0  0  0  0  0  0  0  0  0
   -7.4020   10.7280  -17.9740 C   0  0  0  0  0  0  0  0  0  0  0  0
   -8.5440    9.0030  -16.4920 C   0  0  0  0  0  0  0  0  0  0  0  0
    4.1830    5.2180  -22.6670 C   0  0  0  0  0  0  0  0  0  0  0  0
    4.1630    3.6650  -22.2410 C   0  0  0  0  0  0  0  0  0  0  0  0
    3.0080    2.9230  -22.7750 C   0  0  0  0  0  0  0  0  0  0  0  0
  -10.7960    9.3360  -15.7400 O   0  0  0  0  0  0  0  0  0  0  0  0
    0.7520   10.0950  -20.6750 C   0  0  0  0  0  0  0  0  0  0  0  0
    2.0320    6.7120  -19.7640 N   0  0  0  0  0  0  0  0  0  0  0  0
    3.0850    4.4450  -19.9610 C   0  0  0  0  0  0  0  0  0  0  0  0
   -8.5540   10.3070  -17.1840 C   0  0  0  0  0  0  0  0  0  0  0  0
   -3.8370   11.6120  -20.3130 N   0  0  0  0  0  0  0  0  0  0  0  0
   -5.0860   11.4740  -19.7740 N   0  0  0  0  0  0  0  0  0  0  0  0
   -7.3590    8.1460  -16.6170 C   0  0  0  0  0  0  0  0  0  0  0  0
   -2.7960    8.8560  -18.4800 C   0  0  0  0  0  0  0  0  0  0  0  0
   -0.2510    8.4520  -19.0310 C   0  0  0  0  0  0  0  0  0  0  0  0
   -3.7050    9.8410  -18.9530 C   0  0  0  0  0  0  0  0  0  0  0  0
    4.1400    3.5350  -20.6800 C   0  0  0  0  0  0  0  0  0  0  0  0
  4  5  2  0
  3  7  2  0
 11 10  1  0
  3 19  1  0
 16 10  1  0
  9 24  1  0
  1  4  1  0
 30 17  1  0
  6 28  2  0
 11 21  1  0
  2  9  1  0
  6 20  1  0
  8 20  2  0
 14 23  2  0
 13 27  1  0
  2  8  1  0
 12  6  1  0
 13  2  2  0
 11 22  1  0
 27 29  1  0
 18 17  1  0
 29  9  2  0
 23 15  1  0
 29  1  1  0
  4 14  1  0
 15 26  2  0
 15  3  1  0
 22 30  1  0
 21 12  1  0
 17 16  1  0
  1 25  2  0
 25 24  1  0
 28 13  1  0
 26  5  1  0
A    1
C19
A    2
C13
A    3
C28
A    4
C22
A    5
C27
A    6
C10
A    7
O30
A    8
C14
A    9
C18
A   10
C7
A   11
C2
A   12
C9
A   13
C12
A   14
C23
A   15
C25
A   16
C6
A   17
C5
A   18
C1
A   19
O29
A   20
C15
A   21
N8
A   22
C3
A   23
C24
A   24
N21
A   25
N20
A   26
C26
A   27
C16
A   28
C11
A   29
C17
A   30
C4
M  END
>  <InstanceId>  (22) 
2E9O_A58_A_1001

>  <ChemCompId>  (22) 
A58

>  <PdbId>  (22) 
2E9O

>  <ChainId>  (22) 
A

>  <ResidueNumber>  (22) 
1001

>  <InsertionCode>  (22) 


>  <Model>  (22) 
1

>  <AltIds>  (22) 


>  <MissingHeavyAtoms>  (22) 
0

>  <ObservedFormula>  (22) 
C25 N3 O2

>  <AsymId>  (22) 
B

>  <SeqNum>  (22) 
1001

>  <Name>  (22) 
4-(6-{[(4-METHYLCYCLOHEXYL)AMINO]METHYL}-1,4-DIHYDROINDENO[1,2-C]PYRAZOL-3-YL)BENZOIC ACID

>  <SystematicName>  (22) 
4-[6-[[(4-methylcyclohexyl)amino]methyl]-1,4-dihydroindeno[2,3-d]pyrazol-3-yl]benzoic acid

>  <Synonyms>  (22) 


>  <Type>  (22) 
NON-POLYMER

>  <Formula>  (22) 
C25 H27 N3 O2

>  <MolecularWeight>  (22) 
401.501

>  <ModifiedDate>  (22) 
2011-06-04

>  <Parent>  (22) 


>  <OneLetterCode>  (22) 


>  <SubcomponentList>  (22) 


>  <AmbiguousFlag>  (22) 


>  <InChI>  (22) 
null

>  <InChIKey>  (22) 
null

>  <SMILES>  (22) 
CC1CCC(CC1)NCc2ccc-3c(c2)Cc4c3[nH]nc4c5ccc(cc5)C(=O)O

>  <pKI>  (22) 
7.7

>  <ChemblID>  (22) 
CHEMBL242737

>  <standardized_canonical_smiles>  (22) 
C[C@H]1CC[C@@H](NCc2ccc3c(c2)Cc2c(-c4ccc(C(=O)O)cc4)n[nH]c2-3)CC1

$$$$
4FSY_HK7_A_301
     RDKit          3D

 25 28  0  0  0  0  0  0  0  0999 V2000
   12.4610   -5.3400   13.3540 O   0  0  0  0  0  0  0  0  0  0  0  0
   13.5490   -5.8860   13.5890 C   0  0  0  0  0  0  0  0  0  0  0  0
   14.4770   -5.2640   14.3840 N   0  0  0  0  0  0  0  0  0  0  0  0
   13.8680   -7.2560   13.0690 C   0  0  0  0  0  0  0  0  0  0  0  0
   13.1350   -8.3400   13.6100 C   0  0  0  0  0  0  0  0  0  0  0  0
   13.5080   -9.6570   13.3090 C   0  0  0  0  0  0  0  0  0  0  0  0
   14.6170   -9.9040   12.4730 C   0  0  0  0  0  0  0  0  0  0  0  0
   15.3310   -8.8360   11.8980 C   0  0  0  0  0  0  0  0  0  0  0  0
   14.9440   -7.5030   12.1720 C   0  0  0  0  0  0  0  0  0  0  0  0
   15.6160   -6.4130   11.4220 C   0  0  0  0  0  0  0  0  0  0  0  0
   14.8450   -5.5360   10.6550 C   0  0  0  0  0  0  0  0  0  0  0  0
   15.4400   -4.4770    9.9990 C   0  0  0  0  0  0  0  0  0  0  0  0
   16.8260   -4.2280   10.1000 C   0  0  0  0  0  0  0  0  0  0  0  0
   17.3290   -2.9700    9.4790 C   0  0  0  0  0  0  0  0  0  0  0  0
   16.5450   -2.0090    9.2240 O   0  0  0  0  0  0  0  0  0  0  0  0
   16.9830   -6.2350   11.5090 C   0  0  0  0  0  0  0  0  0  0  0  0
   17.6080   -5.1280   10.8550 C   0  0  0  0  0  0  0  0  0  0  0  0
   18.9880   -4.9690   11.0710 N   0  0  0  0  0  0  0  0  0  0  0  0
   19.9320   -4.6920   10.0500 C   0  0  0  0  0  0  0  0  0  0  0  0
   21.1210   -5.4780   10.0050 C   0  0  0  0  0  0  0  0  0  0  0  0
   22.1370   -5.1880    9.0880 C   0  0  0  0  0  0  0  0  0  0  0  0
   21.9860   -4.1200    8.1940 C   0  0  0  0  0  0  0  0  0  0  0  0
   20.8230   -3.3510    8.2140 C   0  0  0  0  0  0  0  0  0  0  0  0
   19.7760   -3.6230    9.1460 C   0  0  0  0  0  0  0  0  0  0  0  0
   18.6650   -2.7540    9.1140 N   0  0  0  0  0  0  0  0  0  0  0  0
  2  1  2  0
  3  2  1  0
  4  2  1  0
  5  4  2  0
  9  4  1  0
  6  5  1  0
  7  6  2  0
  8  7  1  0
  9  8  2  0
 10  9  1  0
 11 10  2  0
 16 10  1  0
 12 11  1  0
 13 12  2  0
 14 13  1  0
 17 13  1  0
 15 14  2  0
 25 14  1  0
 17 16  2  0
 18 17  1  0
 19 18  1  0
 20 19  2  0
 24 19  1  0
 21 20  1  0
 22 21  2  0
 23 22  1  0
 24 23  2  0
 25 24  1  0
A    1
O2
A    2
C16
A    3
N3
A    4
C15
A    5
C14
A    6
C13
A    7
C12
A    8
C11
A    9
C10
A   10
C8
A   11
C7
A   12
C6
A   13
C5
A   14
C1
A   15
O1
A   16
C9
A   17
C4
A   18
N2
A   19
C3
A   20
C17
A   21
C18
A   22
C19
A   23
C20
A   24
C2
A   25
N1
M  END
>  <Id>  (23) 
4FSY_HK7_A_301

>  <ChainId>  (23) 
A

>  <AsymId>  (23) 
B

>  <SeqNum>  (23) 
301

>  <Name>  (23) 
2-(11-oxo-10,11-dihydro-5H-dibenzo[b,e][1,4]diazepin-3-yl)benzamide

>  <SystematicName>  (23) 
2-(6-oxidanylidene-5,11-dihydrobenzo[b][1,4]benzodiazepin-9-yl)benzamide

>  <Synonyms>  (23) 


>  <Type>  (23) 
NON-POLYMER

>  <Formula>  (23) 
C20 H15 N3 O2

>  <ObservedFormula>  (23) 
C20 N3 O2

>  <MolecularWeight>  (23) 
329.352

>  <ModifiedDate>  (23) 
2012-08-17

>  <Parent>  (23) 


>  <OneLetterCode>  (23) 


>  <SubcomponentList>  (23) 


>  <AmbiguousFlag>  (23) 
N

>  <InsertionCode>  (23) 


>  <InstanceId>  (23) 
4FSY_HK7_A_301

>  <ChemCompId>  (23) 
HK7

>  <PdbId>  (23) 
4FSY

>  <ResidueNumber>  (23) 
301

>  <InChI>  (23) 
InChI=1S/C20H15N3O2/c21-19(24)14-6-2-1-5-13(14)12-9-10-15-18(11-12)22-16-7-3-4-8-17(16)23-20(15)25/h1-11,22H,(H2,21,24)(H,23,25)

>  <InChIKey>  (23) 
XLSKYJYTEGNOBA-UHFFFAOYSA-N

>  <SMILES>  (23) 
c1ccc(c(c1)c2ccc3c(c2)Nc4ccccc4NC3=O)C(=O)N

>  <MissingHeavyAtoms>  (23) 
0

>  <Model>  (23) 
1

>  <AltIds>  (23) 


>  <pKI>  (23) 
6.4

>  <ChemblID>  (23) 
CHEMBL563187

>  <standardized_canonical_smiles>  (23) 
NC(=O)c1ccccc1-c1ccc2c(c1)Nc1ccccc1NC2=O

$$$$
4FT9_H4K_A_300
     RDKit          3D

 22 24  0  0  0  0  0  0  0  0999 V2000
   10.9670   -5.6980   13.6890 N   0  0  0  0  0  0  0  0  0  0  0  0
   11.6830   -5.1220   13.0150 C   0  0  0  0  0  0  0  0  0  0  0  0
   12.5490   -4.3970   12.1450 C   0  0  0  0  0  0  0  0  0  0  0  0
   12.1210   -3.2160   11.6600 N   0  0  0  0  0  0  0  0  0  0  0  0
   12.9080   -2.5930   10.7760 C   0  0  0  0  0  0  0  0  0  0  0  0
   13.8060   -4.9420   11.7620 C   0  0  0  0  0  0  0  0  0  0  0  0
   14.6040   -4.2860   10.9090 N   0  0  0  0  0  0  0  0  0  0  0  0
   14.1650   -3.1120   10.4190 C   0  0  0  0  0  0  0  0  0  0  0  0
   14.9990   -2.4150    9.5300 N   0  0  0  0  0  0  0  0  0  0  0  0
   16.2870   -2.6080    9.1080 C   0  0  0  0  0  0  0  0  0  0  0  0
   16.8090   -1.8860    8.2690 O   0  0  0  0  0  0  0  0  0  0  0  0
   16.9400   -3.6490    9.7310 N   0  0  0  0  0  0  0  0  0  0  0  0
   18.2810   -4.0450    9.5890 C   0  0  0  0  0  0  0  0  0  0  0  0
   18.6270   -5.0720   10.3790 N   0  0  0  0  0  0  0  0  0  0  0  0
   19.8540   -5.5450   10.4070 C   0  0  0  0  0  0  0  0  0  0  0  0
   20.8850   -4.9990    9.6000 C   0  0  0  0  0  0  0  0  0  0  0  0
   20.5740   -3.8940    8.7660 C   0  0  0  0  0  0  0  0  0  0  0  0
   19.2430   -3.4010    8.7450 C   0  0  0  0  0  0  0  0  0  0  0  0
   22.2150   -5.4930    9.6020 C   0  0  0  0  0  0  0  0  0  0  0  0
   23.1830   -4.9070    8.8340 C   0  0  0  0  0  0  0  0  0  0  0  0
   22.8820   -3.8230    8.0320 C   0  0  0  0  0  0  0  0  0  0  0  0
   21.6090   -3.3200    7.9880 C   0  0  0  0  0  0  0  0  0  0  0  0
  2  1  3  0
  3  2  1  0
  4  3  2  0
  6  3  1  0
  5  4  1  0
  8  5  2  0
  7  6  2  0
  8  7  1  0
  9  8  1  0
 10  9  1  0
 11 10  2  0
 12 10  1  0
 13 12  1  0
 14 13  2  0
 18 13  1  0
 15 14  1  0
 16 15  2  0
 17 16  1  0
 19 16  1  0
 18 17  2  0
 22 17  1  0
 20 19  2  0
 21 20  1  0
 22 21  2  0
A    1
N4
A    2
C6
A    3
C4
A    4
N2
A    5
C3
A    6
C5
A    7
N3
A    8
C2
A    9
N1
A   10
C1
A   11
O
A   12
N5
A   13
C7
A   14
N6
A   15
C15
A   16
C14
A   17
C9
A   18
C8
A   19
C13
A   20
C12
A   21
C11
A   22
C10
M  END
>  <Id>  (24) 
4FT9_H4K_A_300

>  <ChainId>  (24) 
A

>  <AsymId>  (24) 
B

>  <SeqNum>  (24) 
300

>  <Name>  (24) 
1-(5-cyanopyrazin-2-yl)-3-isoquinolin-3-ylurea

>  <SystematicName>  (24) 
1-(5-cyanopyrazin-2-yl)-3-isoquinolin-3-yl-urea

>  <Synonyms>  (24) 


>  <Type>  (24) 
NON-POLYMER

>  <Formula>  (24) 
C15 H10 N6 O

>  <ObservedFormula>  (24) 
C15 N6 O

>  <MolecularWeight>  (24) 
290.28

>  <ModifiedDate>  (24) 
2012-08-17

>  <Parent>  (24) 


>  <OneLetterCode>  (24) 


>  <SubcomponentList>  (24) 


>  <AmbiguousFlag>  (24) 
N

>  <InsertionCode>  (24) 


>  <InstanceId>  (24) 
4FT9_H4K_A_300

>  <ChemCompId>  (24) 
H4K

>  <PdbId>  (24) 
4FT9

>  <ResidueNumber>  (24) 
300

>  <InChI>  (24) 
InChI=1S/C15H10N6O/c16-6-12-8-19-14(9-17-12)21-15(22)20-13-5-10-3-1-2-4-11(10)7-18-13/h1-5,7-9H,(H2,18,19,20,21,22)

>  <InChIKey>  (24) 
GFPBJOCJVKFSBK-UHFFFAOYSA-N

>  <SMILES>  (24) 
c1ccc2cnc(cc2c1)NC(=O)Nc3cnc(cn3)C#N

>  <MissingHeavyAtoms>  (24) 
0

>  <Model>  (24) 
1

>  <AltIds>  (24) 


>  <pKI>  (24) 
7.7

>  <ChemblID>  (24) 
CHEMBL540497

>  <standardized_canonical_smiles>  (24) 
N#Cc1cnc(NC(=O)Nc2cc3ccccc3cn2)cn1

$$$$
2GHG_A53_A_1
     RDKit          3D

 36 41  0  0  0  0  0  0  0  0999 V2000
   -1.5120    8.8540  -19.4980 C   0  0  0  0  0  0  0  0  0  0  0  0
   -0.5240    7.9510  -19.4040 C   0  0  0  0  0  0  0  0  0  0  0  0
    0.6660    8.4330  -20.1190 C   0  0  0  0  0  0  0  0  0  0  0  0
    0.4120    9.6370  -20.6520 C   0  0  0  0  0  0  0  0  0  0  0  0
   -0.9730    9.9680  -20.2880 N   0  0  0  0  0  0  0  0  0  0  0  0
   -2.8710    8.7330  -18.9380 C   0  0  0  0  0  0  0  0  0  0  0  0
   -4.0650    9.6030  -19.2120 C   0  0  0  0  0  0  0  0  0  0  0  0
   -4.2370   10.8150  -20.0870 C   0  0  0  0  0  0  0  0  0  0  0  0
   -5.4970   11.2360  -19.9790 N   0  0  0  0  0  0  0  0  0  0  0  0
   -6.2450   10.4450  -19.0990 C   0  0  0  0  0  0  0  0  0  0  0  0
   -5.3760    9.3890  -18.5870 C   0  0  0  0  0  0  0  0  0  0  0  0
   -3.3670   11.3160  -20.7840 O   0  0  0  0  0  0  0  0  0  0  0  0
   -7.6270   10.4360  -18.6100 C   0  0  0  0  0  0  0  0  0  0  0  0
   -8.1090    9.4740  -17.6950 C   0  0  0  0  0  0  0  0  0  0  0  0
   -7.2810    8.4480  -17.1950 C   0  0  0  0  0  0  0  0  0  0  0  0
   -5.9370    8.4230  -17.6440 C   0  0  0  0  0  0  0  0  0  0  0  0
   -7.8010    7.4050  -16.2130 C   0  0  0  0  0  0  0  0  0  0  0  0
   -9.1680    7.2990  -15.8500 C   0  0  0  0  0  0  0  0  0  0  0  0
   -9.6210    6.3530  -14.9690 N   0  0  0  0  0  0  0  0  0  0  0  0
   -8.7520    5.4710  -14.4030 C   0  0  0  0  0  0  0  0  0  0  0  0
   -7.3730    5.4890  -14.6950 C   0  0  0  0  0  0  0  0  0  0  0  0
   -6.9190    6.4760  -15.6100 C   0  0  0  0  0  0  0  0  0  0  0  0
   -6.5510    4.5370  -14.0640 O   0  0  0  0  0  0  0  0  0  0  0  0
   -5.8870    3.5940  -14.9070 C   0  0  0  0  0  0  0  0  0  0  0  0
   -6.6830    2.2860  -14.9220 C   0  0  0  0  0  0  0  0  0  0  0  0
   -5.7890    1.0860  -15.2840 C   0  0  0  0  0  0  0  0  0  0  0  0
   -7.7910    2.4220  -15.8700 N   0  0  0  0  0  0  0  0  0  0  0  0
   -5.6500    0.1630  -14.0850 C   0  0  0  0  0  0  0  0  0  0  0  0
   -6.7010   -0.4440  -13.3830 C   0  0  0  0  0  0  0  0  0  0  0  0
   -6.2030   -1.2000  -12.3760 N   0  0  0  0  0  0  0  0  0  0  0  0
   -4.8170   -1.1340  -12.3590 C   0  0  0  0  0  0  0  0  0  0  0  0
   -4.4260   -0.2710  -13.4460 C   0  0  0  0  0  0  0  0  0  0  0  0
   -3.8460   -1.7180  -11.5450 C   0  0  0  0  0  0  0  0  0  0  0  0
   -2.4660   -1.4600  -11.7800 C   0  0  0  0  0  0  0  0  0  0  0  0
   -2.0750   -0.6060  -12.8510 C   0  0  0  0  0  0  0  0  0  0  0  0
   -3.0700   -0.0110  -13.6790 C   0  0  0  0  0  0  0  0  0  0  0  0
  2  1  2  0
  5  1  1  0
  6  1  1  0
  3  2  1  0
  4  3  2  0
  5  4  1  0
  7  6  2  0
  8  7  1  0
 11  7  1  0
  9  8  1  0
 12  8  2  0
 10  9  1  0
 11 10  2  0
 13 10  1  0
 16 11  1  0
 14 13  2  0
 15 14  1  0
 16 15  2  0
 17 15  1  0
 18 17  2  0
 22 17  1  0
 19 18  1  0
 20 19  2  0
 21 20  1  0
 22 21  2  0
 23 21  1  0
 24 23  1  0
 25 24  1  0
 26 25  1  0
 27 25  1  0
 28 26  1  0
 29 28  2  0
 32 28  1  0
 30 29  1  0
 31 30  1  0
 32 31  2  0
 33 31  1  0
 36 32  1  0
 34 33  2  0
 35 34  1  0
 36 35  2  0
A    1
C1
A    2
C2
A    3
C3
A    4
C4
A    5
N5
A    6
C6
A    7
C7
A    8
C8
A    9
N9
A   10
C10
A   11
C11
A   12
O12
A   13
C13
A   14
C14
A   15
C15
A   16
C16
A   17
C17
A   18
C18
A   19
N19
A   20
C20
A   21
C21
A   22
C22
A   23
O23
A   24
C24
A   25
C25
A   26
C26
A   27
N27
A   28
C28
A   29
C29
A   30
N30
A   31
C31
A   32
C32
A   33
C33
A   34
C34
A   35
C35
A   36
C36
M  END
>  <Id>  (25) 
2GHG_A53_A_1

>  <ChainId>  (25) 
A

>  <AsymId>  (25) 
B

>  <SeqNum>  (25) 
1

>  <Name>  (25) 
5-{5-[(S)-2-AMINO-3-(1H-INDOL-3-YL)-PROPOXYL]-PYRIDIN-3-YL}-3-[1-(1H-PYRROL-2-YL)-METH-(Z)-YLIDENE]-1,3-DIHYDRO-INDOL-2-ONE

>  <SystematicName>  (25) 
(3Z)-5-[5-[(2S)-2-amino-3-(1H-indol-3-yl)propoxy]pyridin-3-yl]-3-(1H-pyrrol-2-ylmethylidene)-1H-indol-2-one

>  <Synonyms>  (25) 


>  <Type>  (25) 
NON-POLYMER

>  <Formula>  (25) 
C29 H25 N5 O2

>  <ObservedFormula>  (25) 
C29 N5 O2

>  <MolecularWeight>  (25) 
475.541

>  <ModifiedDate>  (25) 
2011-06-04

>  <Parent>  (25) 


>  <OneLetterCode>  (25) 


>  <SubcomponentList>  (25) 


>  <AmbiguousFlag>  (25) 
N

>  <InsertionCode>  (25) 


>  <InstanceId>  (25) 
2GHG_A53_A_1

>  <ChemCompId>  (25) 
A53

>  <PdbId>  (25) 
2GHG

>  <ResidueNumber>  (25) 
1

>  <InChI>  (25) 
InChI=1S/C29H25N5O2/c30-21(10-20-15-33-27-6-2-1-5-24(20)27)17-36-23-11-19(14-31-16-23)18-7-8-28-25(12-18)26(29(35)34-28)13-22-4-3-9-32-22/h1-9,11-16,21,32-33H,10,17,30H2,(H,34,35)/b26-13-/t21-/m0/s1

>  <InChIKey>  (25) 
DQMKXCKXZQEVJU-VHLXNKDGSA-N

>  <SMILES>  (25) 
c1ccc2c(c1)c(c[nH]2)C[C@@H](COc3cc(cnc3)c4ccc5c(c4)/C(=C/c6ccc[nH]6)/C(=O)N5)N

>  <MissingHeavyAtoms>  (25) 
0

>  <Model>  (25) 
1

>  <AltIds>  (25) 


>  <pKI>  (25) 
6.9

>  <ChemblID>  (25) 
CHEMBL1230726

>  <standardized_canonical_smiles>  (25) 
N[C@H](COc1cncc(-c2ccc3c(c2)/C(=C/c2ccc[nH]2)C(=O)N3)c1)Cc1c[nH]c2ccccc12

$$$$
4FT3_H1K_A_301
     RDKit          3D

 21 22  0  0  0  0  0  0  0  0999 V2000
   16.8000   -1.6090    8.8790 O   0  0  0  0  0  0  0  0  0  0  0  0
   16.2130   -2.5910    9.1880 C   0  0  0  0  0  0  0  0  0  0  0  0
   14.7790   -2.6050    9.2790 N   0  0  0  0  0  0  0  0  0  0  0  0
   14.0040   -3.1210   10.3710 C   0  0  0  0  0  0  0  0  0  0  0  0
   14.1910   -4.3840   11.0570 C   0  0  0  0  0  0  0  0  0  0  0  0
   13.3080   -4.7860   12.0170 N   0  0  0  0  0  0  0  0  0  0  0  0
   12.2480   -3.9940   12.3310 C   0  0  0  0  0  0  0  0  0  0  0  0
   12.1020   -2.7840   11.6730 C   0  0  0  0  0  0  0  0  0  0  0  0
   12.9590   -2.3550   10.7430 N   0  0  0  0  0  0  0  0  0  0  0  0
   16.8280   -3.8110    9.3490 N   0  0  0  0  0  0  0  0  0  0  0  0
   18.2100   -4.0760    9.3840 C   0  0  0  0  0  0  0  0  0  0  0  0
   19.1820   -3.4120    8.6510 C   0  0  0  0  0  0  0  0  0  0  0  0
   18.5360   -5.1890   10.1850 C   0  0  0  0  0  0  0  0  0  0  0  0
   17.4540   -5.7260   10.9440 O   0  0  0  0  0  0  0  0  0  0  0  0
   17.5630   -6.9870   11.6370 C   0  0  0  0  0  0  0  0  0  0  0  0
   19.8270   -5.6820   10.2290 C   0  0  0  0  0  0  0  0  0  0  0  0
   20.8320   -5.0280    9.4440 C   0  0  0  0  0  0  0  0  0  0  0  0
   20.4790   -3.8960    8.6880 C   0  0  0  0  0  0  0  0  0  0  0  0
   21.6480   -3.0960    7.7690 Cl  0  0  0  0  0  0  0  0  0  0  0  0
   22.1170   -5.5570    9.3720 O   0  0  0  0  0  0  0  0  0  0  0  0
   22.5020   -6.6310   10.2450 C   0  0  0  0  0  0  0  0  0  0  0  0
  2  1  2  0
  3  2  1  0
 10  2  1  0
  4  3  1  0
  5  4  2  0
  9  4  1  0
  6  5  1  0
  7  6  2  0
  8  7  1  0
  9  8  2  0
 11 10  1  0
 12 11  2  0
 13 11  1  0
 18 12  1  0
 14 13  1  0
 16 13  2  0
 15 14  1  0
 17 16  1  0
 18 17  2  0
 20 17  1  0
 19 18  1  0
 21 20  1  0
A    1
O1
A    2
C4
A    3
N2
A    4
C5
A    5
C8
A    6
N4
A    7
C7
A    8
C6
A    9
N3
A   10
N1
A   11
C3
A   12
C2
A   13
C9
A   14
O2
A   15
C10
A   16
C11
A   17
C12
A   18
C1
A   19
CL
A   20
O3
A   21
C13
M  END
>  <Id>  (26) 
4FT3_H1K_A_301

>  <ChainId>  (26) 
A

>  <AsymId>  (26) 
B

>  <SeqNum>  (26) 
301

>  <Name>  (26) 
1-(5-chloro-2,4-dimethoxyphenyl)-3-pyrazin-2-ylurea

>  <SystematicName>  (26) 
1-(5-chloranyl-2,4-dimethoxy-phenyl)-3-pyrazin-2-yl-urea

>  <Synonyms>  (26) 


>  <Type>  (26) 
NON-POLYMER

>  <Formula>  (26) 
C13 H13 Cl N4 O3

>  <ObservedFormula>  (26) 
C13 Cl N4 O3

>  <MolecularWeight>  (26) 
308.72

>  <ModifiedDate>  (26) 
2012-08-17

>  <Parent>  (26) 


>  <OneLetterCode>  (26) 


>  <SubcomponentList>  (26) 


>  <AmbiguousFlag>  (26) 
N

>  <InsertionCode>  (26) 


>  <InstanceId>  (26) 
4FT3_H1K_A_301

>  <ChemCompId>  (26) 
H1K

>  <PdbId>  (26) 
4FT3

>  <ResidueNumber>  (26) 
301

>  <InChI>  (26) 
InChI=1S/C13H13ClN4O3/c1-20-10-6-11(21-2)9(5-8(10)14)17-13(19)18-12-7-15-3-4-16-12/h3-7H,1-2H3,(H2,16,17,18,19)

>  <InChIKey>  (26) 
YHZULYLGPVGRKP-UHFFFAOYSA-N

>  <SMILES>  (26) 
COc1cc(c(cc1NC(=O)Nc2cnccn2)Cl)OC

>  <MissingHeavyAtoms>  (26) 
0

>  <Model>  (26) 
1

>  <AltIds>  (26) 


>  <pKI>  (26) 
6.2

>  <ChemblID>  (26) 
CHEMBL549867

>  <standardized_canonical_smiles>  (26) 
COc1cc(OC)c(NC(=O)Nc2cnccn2)cc1Cl

$$$$
4FT5_H2K_A_300
     RDKit          3D

 25 27  0  0  0  0  0  0  0  0999 V2000
   10.3060   -5.6030   13.5550 N   0  0  0  0  0  0  0  0  0  0  0  0
   11.0530   -5.0080   12.9350 C   0  0  0  0  0  0  0  0  0  0  0  0
   12.0270   -4.3530   12.1490 C   0  0  0  0  0  0  0  0  0  0  0  0
   13.1620   -5.0350   11.9260 N   0  0  0  0  0  0  0  0  0  0  0  0
   14.0730   -4.4770   11.1210 C   0  0  0  0  0  0  0  0  0  0  0  0
   11.8040   -3.0680   11.5520 C   0  0  0  0  0  0  0  0  0  0  0  0
   12.7240   -2.5200   10.7430 N   0  0  0  0  0  0  0  0  0  0  0  0
   13.8460   -3.2270   10.5070 C   0  0  0  0  0  0  0  0  0  0  0  0
   14.6970   -2.5450    9.6110 N   0  0  0  0  0  0  0  0  0  0  0  0
   15.9570   -2.7590    9.0970 C   0  0  0  0  0  0  0  0  0  0  0  0
   16.4880   -1.9620    8.3280 O   0  0  0  0  0  0  0  0  0  0  0  0
   16.5610   -3.9270    9.5030 N   0  0  0  0  0  0  0  0  0  0  0  0
   17.9590   -4.2060    9.5620 C   0  0  0  0  0  0  0  0  0  0  0  0
   18.9080   -3.5630    8.7720 C   0  0  0  0  0  0  0  0  0  0  0  0
   20.2210   -4.0020    8.7910 C   0  0  0  0  0  0  0  0  0  0  0  0
   21.4060   -3.1620    7.8430 Cl  0  0  0  0  0  0  0  0  0  0  0  0
   18.3700   -5.2940   10.3730 C   0  0  0  0  0  0  0  0  0  0  0  0
   19.6850   -5.7320   10.3410 C   0  0  0  0  0  0  0  0  0  0  0  0
   20.6120   -5.0780    9.5570 C   0  0  0  0  0  0  0  0  0  0  0  0
   17.4100   -5.8570   11.1890 O   0  0  0  0  0  0  0  0  0  0  0  0
   17.8490   -6.4500   12.4370 C   0  0  0  0  0  0  0  0  0  0  0  0
   16.7780   -6.1820   13.5310 C   0  0  0  0  0  0  0  0  0  0  0  0
   15.9640   -7.4060   13.5420 N   0  0  0  0  0  0  0  0  0  0  0  0
   16.8640   -8.5240   13.2370 C   0  0  0  0  0  0  0  0  0  0  0  0
   17.8810   -7.9550   12.2380 C   0  0  0  0  0  0  0  0  0  0  0  0
  2  1  3  0
  3  2  1  0
  4  3  2  0
  6  3  1  0
  5  4  1  0
  8  5  2  0
  7  6  2  0
  8  7  1  0
  9  8  1  0
 10  9  1  0
 11 10  2  0
 12 10  1  0
 13 12  1  0
 14 13  2  0
 17 13  1  0
 15 14  1  0
 16 15  1  0
 19 15  2  0
 18 17  2  0
 20 17  1  0
 19 18  1  0
 21 20  1  0
 22 21  1  0
 25 21  1  0
 23 22  1  0
 24 23  1  0
 25 24  1  0
A    1
N6
A    2
C15
A    3
C13
A    4
N4
A    5
C12
A    6
C14
A    7
N5
A    8
C11
A    9
N3
A   10
C10
A   11
O2
A   12
N2
A   13
C9
A   14
C16
A   15
C1
A   16
CL
A   17
C4
A   18
C3
A   19
C2
A   20
O1
A   21
C5
A   22
C8
A   23
N1
A   24
C7
A   25
C6
M  END
>  <Id>  (27) 
4FT5_H2K_A_300

>  <ChainId>  (27) 
A

>  <AsymId>  (27) 
B

>  <SeqNum>  (27) 
300

>  <Name>  (27) 
1-{5-chloro-2-[(3R)-pyrrolidin-3-yloxy]phenyl}-3-(5-cyanopyrazin-2-yl)urea

>  <SystematicName>  (27) 
1-[5-chloranyl-2-[(3R)-pyrrolidin-3-yl]oxy-phenyl]-3-(5-cyanopyrazin-2-yl)urea

>  <Synonyms>  (27) 


>  <Type>  (27) 
NON-POLYMER

>  <Formula>  (27) 
C16 H15 Cl N6 O2

>  <ObservedFormula>  (27) 
C16 Cl N6 O2

>  <MolecularWeight>  (27) 
358.782

>  <ModifiedDate>  (27) 
2012-08-17

>  <Parent>  (27) 


>  <OneLetterCode>  (27) 


>  <SubcomponentList>  (27) 


>  <AmbiguousFlag>  (27) 
N

>  <InsertionCode>  (27) 


>  <InstanceId>  (27) 
4FT5_H2K_A_300

>  <ChemCompId>  (27) 
H2K

>  <PdbId>  (27) 
4FT5

>  <ResidueNumber>  (27) 
300

>  <InChI>  (27) 
InChI=1S/C16H15ClN6O2/c17-10-1-2-14(25-12-3-4-19-8-12)13(5-10)22-16(24)23-15-9-20-11(6-18)7-21-15/h1-2,5,7,9,12,19H,3-4,8H2,(H2,21,22,23,24)/t12-/m1/s1

>  <InChIKey>  (27) 
XWBVWQBBHHJLKT-GFCCVEGCSA-N

>  <SMILES>  (27) 
c1cc(c(cc1Cl)NC(=O)Nc2cnc(cn2)C#N)O[C@@H]3CCNC3

>  <MissingHeavyAtoms>  (27) 
0

>  <Model>  (27) 
1

>  <AltIds>  (27) 


>  <pKI>  (27) 
7.6

>  <ChemblID>  (27) 
CHEMBL558470

>  <standardized_canonical_smiles>  (27) 
N#Cc1cnc(NC(=O)Nc2cc(Cl)ccc2OC2CCNC2)cn1

$$$$
3JVS_AGY_A_900
     RDKit          3D

 30 32  0  0  0  0  0  0  0  0999 V2000
   33.9930   -2.1240   17.6380 C   0  0  0  0  0  0  0  0  0  0  0  0
   31.4940   -2.4220   17.7810 N   0  0  0  0  0  0  0  0  0  0  0  0
   31.3890   -3.6210   15.8520 O   0  0  0  0  0  0  0  0  0  0  0  0
   32.6240   -1.6310   17.5880 C   0  0  0  0  0  0  0  0  0  0  0  0
   29.7930   -4.0180   17.3470 N   0  0  0  0  0  0  0  0  0  0  0  0
   30.4340   -5.4590   19.4010 O   0  0  0  0  0  0  0  0  0  0  0  0
   35.1360   -1.1870   17.4150 C   0  0  0  0  0  0  0  0  0  0  0  0
   29.1370   -3.8040   18.6060 N   0  0  0  0  0  0  0  0  0  0  0  0
   24.8190   -4.7610   22.6990 O   0  0  0  0  0  0  0  0  0  0  0  0
   34.2740   -3.5170   17.9020 C   0  0  0  0  0  0  0  0  0  0  0  0
   25.6450   -3.8090   22.3680 N   0  0  0  0  0  0  0  0  0  0  0  0
   25.1680   -2.5480   22.0310 O   0  0  0  0  0  0  0  0  0  0  0  0
   32.4120   -0.2110   17.3180 C   0  0  0  0  0  0  0  0  0  0  0  0
   34.8990    0.2110   17.1500 C   0  0  0  0  0  0  0  0  0  0  0  0
   36.4760   -1.6760   17.4650 C   0  0  0  0  0  0  0  0  0  0  0  0
   35.6370   -3.9930   17.9490 C   0  0  0  0  0  0  0  0  0  0  0  0
   33.5260    0.7020   17.1010 C   0  0  0  0  0  0  0  0  0  0  0  0
   30.9160   -3.3510   16.9640 C   0  0  0  0  0  0  0  0  0  0  0  0
   36.7350   -3.0780   17.7320 C   0  0  0  0  0  0  0  0  0  0  0  0
   29.5470   -4.6110   19.6220 C   0  0  0  0  0  0  0  0  0  0  0  0
   28.9510   -4.4900   20.9510 C   0  0  0  0  0  0  0  0  0  0  0  0
   27.5800   -4.1810   21.0710 C   0  0  0  0  0  0  0  0  0  0  0  0
   29.7350   -4.6820   22.1300 C   0  0  0  0  0  0  0  0  0  0  0  0
   26.9430   -4.0570   22.3480 C   0  0  0  0  0  0  0  0  0  0  0  0
   29.1390   -4.5650   23.4400 C   0  0  0  0  0  0  0  0  0  0  0  0
   27.7090   -4.2430   23.5950 C   0  0  0  0  0  0  0  0  0  0  0  0
   27.1220   -4.1330   25.0240 C   0  0  0  0  0  0  0  0  0  0  0  0
   28.0260   -3.3630   26.0170 C   0  0  0  0  0  0  0  0  0  0  0  0
   25.7950   -3.3270   25.2910 C   0  0  0  0  0  0  0  0  0  0  0  0
   26.8120   -5.5700   25.4860 C   0  0  0  0  0  0  0  0  0  0  0  0
  4  1  1  0
  7  1  1  0
 10  1  2  0
  4  2  1  0
 18  2  1  0
 18  3  2  0
 13  4  2  0
  8  5  1  0
 18  5  1  0
 20  6  2  0
 14  7  1  0
 15  7  2  0
 20  8  1  0
 11  9  2  0
 16 10  1  0
 12 11  1  0
 24 11  1  0
 17 13  1  0
 17 14  2  0
 19 15  1  0
 19 16  2  0
 21 20  1  0
 22 21  2  0
 23 21  1  0
 24 22  1  0
 25 23  2  0
 26 24  2  0
 26 25  1  0
 27 26  1  0
 28 27  1  0
 29 27  1  0
 30 27  1  0
M  CHG  2  11   1  12  -1
A    1
C1
A    2
N1
A    3
O1
A    4
C2
A    5
N2
A    6
O2
A    7
C3
A    8
N3
A    9
O3
A   10
C4
A   11
N4
A   12
O4
A   13
C5
A   14
C6
A   15
C7
A   16
C8
A   17
C9
A   18
C10
A   19
C11
A   20
C12
A   21
C13
A   22
C14
A   23
C15
A   24
C16
A   25
C17
A   26
C18
A   27
C19
A   28
C20
A   29
C21
A   30
C22
M  END
>  <Id>  (28) 
3JVS_AGY_A_900

>  <ChainId>  (28) 
A

>  <AsymId>  (28) 
B

>  <SeqNum>  (28) 
900

>  <Name>  (28) 
2-[(4-tert-butyl-3-nitrophenyl)carbonyl]-N-naphthalen-1-ylhydrazinecarboxamide

>  <SystematicName>  (28) 
1-[(4-tert-butyl-3-nitro-phenyl)carbonylamino]-3-naphthalen-1-yl-urea

>  <Synonyms>  (28) 


>  <Type>  (28) 
NON-POLYMER

>  <Formula>  (28) 
C22 H22 N4 O4

>  <ObservedFormula>  (28) 
C22 N4 O4

>  <MolecularWeight>  (28) 
406.434

>  <ModifiedDate>  (28) 
2011-06-04

>  <Parent>  (28) 


>  <OneLetterCode>  (28) 


>  <SubcomponentList>  (28) 


>  <AmbiguousFlag>  (28) 
N

>  <InsertionCode>  (28) 


>  <InstanceId>  (28) 
3JVS_AGY_A_900

>  <ChemCompId>  (28) 
AGY

>  <PdbId>  (28) 
3JVS

>  <ResidueNumber>  (28) 
900

>  <InChI>  (28) 
InChI=1S/C22H22N4O4/c1-22(2,3)17-12-11-15(13-19(17)26(29)30)20(27)24-25-21(28)23-18-10-6-8-14-7-4-5-9-16(14)18/h4-13H,1-3H3,(H,24,27)(H2,23,25,28)

>  <InChIKey>  (28) 
YZMKNNITNHTADN-UHFFFAOYSA-N

>  <SMILES>  (28) 
CC(C)(C)c1ccc(cc1[N+](=O)[O-])C(=O)NNC(=O)Nc2cccc3c2cccc3

>  <MissingHeavyAtoms>  (28) 
0

>  <Model>  (28) 
1

>  <AltIds>  (28) 


>  <pKI>  (28) 
6.84

>  <ChemblID>  (28) 
-

>  <standardized_canonical_smiles>  (28) 
CC(C)(C)c1ccc(C(=O)NNC(=O)Nc2cccc3ccccc23)cc1[N+](=O)[O-]

$$$$
3JVR_AGX_A_901
     RDKit          3D

 23 25  0  0  0  0  0  0  0  0999 V2000
   33.5020   -0.4570   17.2450 C   0  0  0  0  0  0  0  0  0  0  0  0
   31.6960   -2.2630   17.2440 N   0  0  0  0  0  0  0  0  0  0  0  0
   29.6340   -4.3190   18.3490 O   0  0  0  0  0  0  0  0  0  0  0  0
   25.4300   -3.1040   24.0080 Cl  0  0  0  0  0  0  0  0  0  0  0  0
   34.9240   -0.2480   17.3680 C   0  0  0  0  0  0  0  0  0  0  0  0
   33.0950   -4.0190   17.5650 N   0  0  0  0  0  0  0  0  0  0  0  0
   30.8780   -5.0370   20.0350 O   0  0  0  0  0  0  0  0  0  0  0  0
   27.8890   -3.3520   26.1570 Cl  0  0  0  0  0  0  0  0  0  0  0  0
   35.8100   -1.3650   17.5700 C   0  0  0  0  0  0  0  0  0  0  0  0
   28.6940   -4.2190   20.2800 N   0  0  0  0  0  0  0  0  0  0  0  0
   35.2680   -2.6930   17.6520 C   0  0  0  0  0  0  0  0  0  0  0  0
   32.9910   -1.7930   17.3300 C   0  0  0  0  0  0  0  0  0  0  0  0
   33.8510   -2.8760   17.5260 C   0  0  0  0  0  0  0  0  0  0  0  0
   31.8170   -3.6120   17.3910 C   0  0  0  0  0  0  0  0  0  0  0  0
   30.6800   -4.6180   17.3710 C   0  0  0  0  0  0  0  0  0  0  0  0
   29.8180   -4.5620   19.6690 C   0  0  0  0  0  0  0  0  0  0  0  0
   28.6060   -4.0250   21.6600 C   0  0  0  0  0  0  0  0  0  0  0  0
   29.6810   -4.1380   22.6140 C   0  0  0  0  0  0  0  0  0  0  0  0
   29.4400   -3.9230   23.9980 C   0  0  0  0  0  0  0  0  0  0  0  0
   28.1270   -3.5960   24.4610 C   0  0  0  0  0  0  0  0  0  0  0  0
   27.0460   -3.4840   23.5100 C   0  0  0  0  0  0  0  0  0  0  0  0
   27.3000   -3.6970   22.1180 C   0  0  0  0  0  0  0  0  0  0  0  0
   29.7870   -4.6020   16.2040 C   0  0  0  0  0  0  0  0  0  0  0  0
  5  1  2  0
 12  1  1  0
 12  2  1  0
 14  2  1  0
 15  3  1  0
 16  3  1  0
 21  4  1  0
  9  5  1  0
 13  6  1  0
 14  6  2  0
 16  7  2  0
 20  8  1  0
 11  9  2  0
 16 10  1  0
 17 10  1  0
 13 11  1  0
 13 12  2  0
 15 14  1  0
 23 15  1  0
 18 17  2  0
 22 17  1  0
 19 18  1  0
 20 19  2  0
 21 20  1  0
 22 21  2  0
A    1
C
A    2
N
A    3
O
A    4
CL
A    5
C1
A    6
N1
A    7
O1
A    8
CL1
A    9
C2
A   10
N2
A   11
C3
A   12
C4
A   13
C5
A   14
C6
A   15
C7
A   16
C8
A   17
C9
A   18
C10
A   19
C11
A   20
C12
A   21
C13
A   22
C14
A   23
C15
M  END
>  <Id>  (29) 
3JVR_AGX_A_901

>  <ChainId>  (29) 
A

>  <AsymId>  (29) 
B

>  <SeqNum>  (29) 
901

>  <Name>  (29) 
(1S)-1-(1H-benzimidazol-2-yl)ethyl (3,4-dichlorophenyl)carbamate

>  <SystematicName>  (29) 
[(1S)-1-(1H-benzimidazol-2-yl)ethyl] N-(3,4-dichlorophenyl)carbamate

>  <Synonyms>  (29) 


>  <Type>  (29) 
NON-POLYMER

>  <Formula>  (29) 
C16 H13 Cl2 N3 O2

>  <ObservedFormula>  (29) 
C16 Cl2 N3 O2

>  <MolecularWeight>  (29) 
350.199

>  <ModifiedDate>  (29) 
2011-06-04

>  <Parent>  (29) 


>  <OneLetterCode>  (29) 


>  <SubcomponentList>  (29) 


>  <AmbiguousFlag>  (29) 
N

>  <InsertionCode>  (29) 


>  <InstanceId>  (29) 
3JVR_AGX_A_901

>  <ChemCompId>  (29) 
AGX

>  <PdbId>  (29) 
3JVR

>  <ResidueNumber>  (29) 
901

>  <InChI>  (29) 
InChI=1S/C16H13Cl2N3O2/c1-9(15-20-13-4-2-3-5-14(13)21-15)23-16(22)19-10-6-7-11(17)12(18)8-10/h2-9H,1H3,(H,19,22)(H,20,21)/t9-/m0/s1

>  <InChIKey>  (29) 
MVMZWHAHBIJEDT-VIFPVBQESA-N

>  <SMILES>  (29) 
C[C@@H](c1[nH]c2ccccc2n1)OC(=O)Nc3ccc(c(c3)Cl)Cl

>  <MissingHeavyAtoms>  (29) 
0

>  <Model>  (29) 
1

>  <AltIds>  (29) 


>  <pKI>  (29) 
5.72

>  <ChemblID>  (29) 
-

>  <standardized_canonical_smiles>  (29) 
C[C@H](OC(=O)Nc1ccc(Cl)c(Cl)c1)c1nc2ccccc2[nH]1

$$$$
1NVQ_UCN_A_400
     RDKit          3D

 36 43  0  0  0  0  0  0  0  0999 V2000
    8.2700    9.9540   17.2910 O   0  0  0  0  0  0  0  0  0  0  0  0
    7.7630    9.3100   18.4550 C   0  0  0  0  0  0  0  0  0  0  0  0
    6.9180   10.1940   19.2270 N   0  0  0  0  0  0  0  0  0  0  0  0
    5.6270    9.8480   19.3640 C   0  0  0  0  0  0  0  0  0  0  0  0
    4.7470   10.4480   19.9630 O   0  0  0  0  0  0  0  0  0  0  0  0
    5.5330    8.5650   18.6030 C   0  0  0  0  0  0  0  0  0  0  0  0
    4.3050    7.7170   18.4090 C   0  0  0  0  0  0  0  0  0  0  0  0
    2.9460    7.7620   18.7970 C   0  0  0  0  0  0  0  0  0  0  0  0
    2.3100    6.5900   18.2270 C   0  0  0  0  0  0  0  0  0  0  0  0
    0.9100    6.3140   18.4170 C   0  0  0  0  0  0  0  0  0  0  0  0
    0.1610    7.2210   19.1810 C   0  0  0  0  0  0  0  0  0  0  0  0
    0.7890    8.3860   19.7510 C   0  0  0  0  0  0  0  0  0  0  0  0
    2.1380    8.6360   19.5570 C   0  0  0  0  0  0  0  0  0  0  0  0
    3.2490    5.8750   17.5380 N   0  0  0  0  0  0  0  0  0  0  0  0
    4.5220    6.5310   17.6060 C   0  0  0  0  0  0  0  0  0  0  0  0
    5.7570    6.2170   17.0610 C   0  0  0  0  0  0  0  0  0  0  0  0
    6.2140    5.1320   16.2200 N   0  0  0  0  0  0  0  0  0  0  0  0
    7.6060    5.2810   15.9270 C   0  0  0  0  0  0  0  0  0  0  0  0
    8.0400    6.4960   16.5930 C   0  0  0  0  0  0  0  0  0  0  0  0
    9.3880    6.8940   16.4620 C   0  0  0  0  0  0  0  0  0  0  0  0
   10.3170    6.1570   15.7160 C   0  0  0  0  0  0  0  0  0  0  0  0
    9.8520    4.9520   15.0620 C   0  0  0  0  0  0  0  0  0  0  0  0
    8.5300    4.5440   15.1750 C   0  0  0  0  0  0  0  0  0  0  0  0
    6.9290    7.0700   17.2760 C   0  0  0  0  0  0  0  0  0  0  0  0
    6.7180    8.2500   18.0830 C   0  0  0  0  0  0  0  0  0  0  0  0
    5.2030    4.0730   15.7860 C   0  0  0  0  0  0  0  0  0  0  0  0
    4.3030    3.8480   16.8550 O   0  0  0  0  0  0  0  0  0  0  0  0
    3.0380    4.4870   17.0640 C   0  0  0  0  0  0  0  0  0  0  0  0
    2.2520    4.5570   15.6950 C   0  0  0  0  0  0  0  0  0  0  0  0
    3.0440    3.9210   14.5170 C   0  0  0  0  0  0  0  0  0  0  0  0
    2.1780    4.1690   13.2170 N   0  0  0  0  0  0  0  0  0  0  0  0
    2.8230    3.5400   12.0170 C   0  0  0  0  0  0  0  0  0  0  0  0
    4.4980    4.5210   14.4210 C   0  0  0  0  0  0  0  0  0  0  0  0
    4.3430    5.9660   14.3770 O   0  0  0  0  0  0  0  0  0  0  0  0
    5.1750    6.5710   13.3990 C   0  0  0  0  0  0  0  0  0  0  0  0
    5.8590    2.7140   15.5650 C   0  0  0  0  0  0  0  0  0  0  0  0
  2  1  1  0
  3  2  1  0
 25  2  1  0
  4  3  1  0
  5  4  2  0
  6  4  1  0
  7  6  2  0
 25  6  1  0
  8  7  1  0
 15  7  1  0
  9  8  2  0
 13  8  1  0
 10  9  1  0
 14  9  1  0
 11 10  2  0
 12 11  1  0
 13 12  2  0
 15 14  1  0
 28 14  1  0
 16 15  2  0
 17 16  1  0
 24 16  1  0
 18 17  1  0
 26 17  1  0
 19 18  2  0
 23 18  1  0
 20 19  1  0
 24 19  1  0
 21 20  2  0
 22 21  1  0
 23 22  2  0
 25 24  2  0
 27 26  1  0
 33 26  1  0
 36 26  1  0
 28 27  1  0
 29 28  1  0
 30 29  1  0
 31 30  1  0
 33 30  1  0
 32 31  1  0
 34 33  1  0
 35 34  1  0
A    1
O37
A    2
C9
A    3
N1
A    4
C8
A    5
O5
A    6
C7
A    7
C6
A    8
C5
A    9
C20
A   10
C1
A   11
C2
A   12
C3
A   13
C4
A   14
N3
A   15
C19
A   16
C18
A   17
N2
A   18
C17
A   19
C12
A   20
C13
A   21
C14
A   22
C15
A   23
C16
A   24
C11
A   25
C10
A   26
C21
A   27
O4
A   28
C25
A   29
C24
A   30
C23
A   31
N4
A   32
C28
A   33
C22
A   34
O6
A   35
C27
A   36
C26
M  END
>  <Id>  (30) 
1NVQ_UCN_A_400

>  <ChainId>  (30) 
A

>  <AsymId>  (30) 
D

>  <SeqNum>  (30) 
400

>  <Name>  (30) 
7-HYDROXYSTAUROSPORINE

>  <SystematicName>  (30) 
null

>  <Synonyms>  (30) 


>  <Type>  (30) 
NON-POLYMER

>  <Formula>  (30) 
C28 H26 N4 O4

>  <ObservedFormula>  (30) 
C28 N4 O4

>  <MolecularWeight>  (30) 
482.53

>  <ModifiedDate>  (30) 
2011-06-04

>  <Parent>  (30) 


>  <OneLetterCode>  (30) 


>  <SubcomponentList>  (30) 


>  <AmbiguousFlag>  (30) 
N

>  <InsertionCode>  (30) 


>  <InstanceId>  (30) 
1NVQ_UCN_A_400

>  <ChemCompId>  (30) 
UCN

>  <PdbId>  (30) 
1NVQ

>  <ResidueNumber>  (30) 
400

>  <InChI>  (30) 
InChI=1S/C28H26N4O4/c1-28-25(35-3)15(29-2)12-18(36-28)31-16-10-6-4-8-13(16)19-21-22(27(34)30-26(21)33)20-14-9-5-7-11-17(14)32(28)24(20)23(19)31/h4-11,15,18,25,27,29,34H,12H2,1-3H3,(H,30,33)/t15-,18-,25-,27-,28+/m1/s1

>  <InChIKey>  (30) 
PBCZSGKMGDDXIJ-HQCWYSJUSA-N

>  <SMILES>  (30) 
C[C@@]12[C@@H]([C@@H](C[C@@H](O1)n3c4ccccc4c5c3c6n2c7ccccc7c6c8c5C(=O)N[C@@H]8O)NC)OC

>  <MissingHeavyAtoms>  (30) 
0

>  <Model>  (30) 
1

>  <AltIds>  (30) 


>  <pKI>  (30) 
8.25

>  <ChemblID>  (30) 
-

>  <standardized_canonical_smiles>  (30) 
CN[C@@H]1C[C@H]2O[C@@](C)([C@@H]1OC)n1c3ccccc3c3c4c(c5c6ccccc6n2c5c31)C(=O)N[C@@H]4O

$$$$
2C3K_ABO_A_1271
     RDKit          3D

 27 31  0  0  0  0  0  0  0  0999 V2000
   11.2310   -0.1250   15.1820 C   0  0  0  0  0  0  0  0  0  0  0  0
   11.8930   -1.4760   15.0520 O   0  0  0  0  0  0  0  0  0  0  0  0
   11.1870   -2.6100   15.4600 C   0  0  0  0  0  0  0  0  0  0  0  0
    9.9570   -2.5380   16.1460 C   0  0  0  0  0  0  0  0  0  0  0  0
   11.7240   -3.8680   15.1770 C   0  0  0  0  0  0  0  0  0  0  0  0
   12.9170   -3.9530   14.5240 O   0  0  0  0  0  0  0  0  0  0  0  0
   11.0670   -5.0410   15.5660 C   0  0  0  0  0  0  0  0  0  0  0  0
    9.8320   -4.9620   16.2470 C   0  0  0  0  0  0  0  0  0  0  0  0
    9.2670   -3.7090   16.5360 C   0  0  0  0  0  0  0  0  0  0  0  0
    8.0420   -3.6070   17.1980 C   0  0  0  0  0  0  0  0  0  0  0  0
    7.8340   -2.5150   18.0840 C   0  0  0  0  0  0  0  0  0  0  0  0
    7.0320   -4.5550   16.9740 C   0  0  0  0  0  0  0  0  0  0  0  0
    5.8090   -4.4260   17.6510 C   0  0  0  0  0  0  0  0  0  0  0  0
    5.5940   -3.3580   18.5350 C   0  0  0  0  0  0  0  0  0  0  0  0
    6.6090   -2.4110   18.7520 C   0  0  0  0  0  0  0  0  0  0  0  0
    6.1230   -1.5090   19.6460 N   0  0  0  0  0  0  0  0  0  0  0  0
    4.9440   -1.7580   19.9970 N   0  0  0  0  0  0  0  0  0  0  0  0
    4.5470   -2.9170   19.3950 C   0  0  0  0  0  0  0  0  0  0  0  0
    3.2700   -3.4680   19.5110 C   0  0  0  0  0  0  0  0  0  0  0  0
    2.8070   -4.6480   19.0080 N   0  0  0  0  0  0  0  0  0  0  0  0
    1.4830   -4.7110   19.3330 C   0  0  0  0  0  0  0  0  0  0  0  0
    0.5210   -5.6750   19.1010 C   0  0  0  0  0  0  0  0  0  0  0  0
   -0.8230   -5.5190   19.5170 C   0  0  0  0  0  0  0  0  0  0  0  0
   -1.1880   -4.3380   20.2210 C   0  0  0  0  0  0  0  0  0  0  0  0
   -0.1840   -3.3420   20.4740 C   0  0  0  0  0  0  0  0  0  0  0  0
    1.1250   -3.5390   20.0150 C   0  0  0  0  0  0  0  0  0  0  0  0
    2.2350   -2.7870   20.1170 N   0  0  0  0  0  0  0  0  0  0  0  0
  2  1  1  0
  3  2  1  0
  4  3  2  0
  5  3  1  0
  9  4  1  0
  6  5  1  0
  7  5  2  0
  8  7  1  0
  9  8  2  0
 10  9  1  0
 11 10  2  0
 12 10  1  0
 15 11  1  0
 13 12  2  0
 14 13  1  0
 15 14  2  0
 18 14  1  0
 16 15  1  0
 17 16  1  0
 18 17  2  0
 19 18  1  0
 20 19  1  0
 27 19  2  0
 21 20  1  0
 22 21  2  0
 26 21  1  0
 23 22  1  0
 24 23  2  0
 25 24  1  0
 26 25  2  0
 27 26  1  0
A    1
C18
A    2
O17
A    3
C12
A    4
C11
A    5
C13
A    6
O16
A    7
C14
A    8
C15
A    9
C10
A   10
C8
A   11
C9
A   12
C7
A   13
C6
A   14
C5
A   15
C4
A   16
N3
A   17
N1
A   18
C2
A   19
C19
A   20
N21
A   21
C22
A   22
C27
A   23
C26
A   24
C25
A   25
C24
A   26
C23
A   27
N20
M  END
>  <Id>  (31) 
2C3K_ABO_A_1271

>  <ChainId>  (31) 
A

>  <AsymId>  (31) 
B

>  <SeqNum>  (31) 
1271

>  <Name>  (31) 
4-[3-(1H-BENZIMIDAZOL-2-YL)-1H-INDAZOL-6-YL]-2-METHOXYPHENOL

>  <SystematicName>  (31) 
4-[3-(1H-benzimidazol-2-yl)-1H-indazol-6-yl]-2-methoxy-phenol

>  <Synonyms>  (31) 


>  <Type>  (31) 
NON-POLYMER

>  <Formula>  (31) 
C21 H16 N4 O2

>  <ObservedFormula>  (31) 
C21 N4 O2

>  <MolecularWeight>  (31) 
356.377

>  <ModifiedDate>  (31) 
2011-06-04

>  <Parent>  (31) 


>  <OneLetterCode>  (31) 


>  <SubcomponentList>  (31) 


>  <AmbiguousFlag>  (31) 
N

>  <InsertionCode>  (31) 


>  <InstanceId>  (31) 
2C3K_ABO_A_1271

>  <ChemCompId>  (31) 
ABO

>  <PdbId>  (31) 
2C3K

>  <ResidueNumber>  (31) 
1271

>  <InChI>  (31) 
InChI=1S/C21H16N4O2/c1-27-19-11-13(7-9-18(19)26)12-6-8-14-17(10-12)24-25-20(14)21-22-15-4-2-3-5-16(15)23-21/h2-11,26H,1H3,(H,22,23)(H,24,25)

>  <InChIKey>  (31) 
GYPHGCGOSZJXOT-UHFFFAOYSA-N

>  <SMILES>  (31) 
COc1cc(ccc1O)c2ccc3c(c2)[nH]nc3c4[nH]c5ccccc5n4

>  <MissingHeavyAtoms>  (31) 
0

>  <Model>  (31) 
1

>  <AltIds>  (31) 


>  <pKI>  (31) 
7.59

>  <ChemblID>  (31) 
-

>  <standardized_canonical_smiles>  (31) 
COc1cc(-c2ccc3c(-c4nc5ccccc5[nH]4)n[nH]c3c2)ccc1O

$$$$
4FTC_H6K_A_301
     RDKit          3D

 23 25  0  0  0  0  0  0  0  0999 V2000
   10.7700   -5.8330   13.6790 N   0  0  0  0  0  0  0  0  0  0  0  0
   11.4680   -5.2370   13.0030 C   0  0  0  0  0  0  0  0  0  0  0  0
   12.3550   -4.5180   12.1480 C   0  0  0  0  0  0  0  0  0  0  0  0
   11.9410   -3.3410   11.6480 N   0  0  0  0  0  0  0  0  0  0  0  0
   12.7540   -2.7230   10.7830 C   0  0  0  0  0  0  0  0  0  0  0  0
   13.6330   -5.0640   11.8050 C   0  0  0  0  0  0  0  0  0  0  0  0
   14.4530   -4.4050   10.9770 N   0  0  0  0  0  0  0  0  0  0  0  0
   14.0230   -3.2370   10.4640 C   0  0  0  0  0  0  0  0  0  0  0  0
   14.8760   -2.5400    9.5930 N   0  0  0  0  0  0  0  0  0  0  0  0
   16.1780   -2.7710    9.2230 C   0  0  0  0  0  0  0  0  0  0  0  0
   16.7680   -2.0680    8.4060 O   0  0  0  0  0  0  0  0  0  0  0  0
   16.8170   -3.8510    9.8570 N   0  0  0  0  0  0  0  0  0  0  0  0
   18.1540   -4.2030    9.6640 C   0  0  0  0  0  0  0  0  0  0  0  0
   18.6130   -5.2090   10.4030 N   0  0  0  0  0  0  0  0  0  0  0  0
   19.9360   -5.2700   10.0680 N   0  0  0  0  0  0  0  0  0  0  0  0
   20.2860   -4.3520    9.1410 C   0  0  0  0  0  0  0  0  0  0  0  0
   19.1480   -3.6350    8.8650 C   0  0  0  0  0  0  0  0  0  0  0  0
   21.6460   -4.2620    8.5720 C   0  0  0  0  0  0  0  0  0  0  0  0
   22.5860   -5.2660    8.7940 C   0  0  0  0  0  0  0  0  0  0  0  0
   23.8770   -5.1410    8.3020 C   0  0  0  0  0  0  0  0  0  0  0  0
   24.2360   -4.0340    7.5620 C   0  0  0  0  0  0  0  0  0  0  0  0
   23.3040   -3.0520    7.3030 C   0  0  0  0  0  0  0  0  0  0  0  0
   22.0160   -3.1570    7.8090 C   0  0  0  0  0  0  0  0  0  0  0  0
  2  1  3  0
  3  2  1  0
  4  3  2  0
  6  3  1  0
  5  4  1  0
  8  5  2  0
  7  6  2  0
  8  7  1  0
  9  8  1  0
 10  9  1  0
 11 10  2  0
 12 10  1  0
 13 12  1  0
 14 13  2  0
 17 13  1  0
 15 14  1  0
 16 15  1  0
 17 16  2  0
 18 16  1  0
 19 18  2  0
 23 18  1  0
 20 19  1  0
 21 20  2  0
 22 21  1  0
 23 22  2  0
A    1
N4
A    2
C6
A    3
C4
A    4
N2
A    5
C3
A    6
C5
A    7
N3
A    8
C2
A    9
N1
A   10
C1
A   11
O
A   12
N5
A   13
C7
A   14
N7
A   15
N6
A   16
C9
A   17
C8
A   18
C10
A   19
C15
A   20
C14
A   21
C13
A   22
C12
A   23
C11
M  END
>  <Id>  (32) 
4FTC_H6K_A_301

>  <ChainId>  (32) 
A

>  <AsymId>  (32) 
B

>  <SeqNum>  (32) 
301

>  <Name>  (32) 
1-(5-cyanopyrazin-2-yl)-3-(5-phenyl-1H-pyrazol-3-yl)urea

>  <SystematicName>  (32) 
1-(5-cyanopyrazin-2-yl)-3-(5-phenyl-1H-pyrazol-3-yl)urea

>  <Synonyms>  (32) 


>  <Type>  (32) 
NON-POLYMER

>  <Formula>  (32) 
C15 H11 N7 O

>  <ObservedFormula>  (32) 
C15 N7 O

>  <MolecularWeight>  (32) 
305.294

>  <ModifiedDate>  (32) 
2012-08-17

>  <Parent>  (32) 


>  <OneLetterCode>  (32) 


>  <SubcomponentList>  (32) 


>  <AmbiguousFlag>  (32) 
N

>  <InsertionCode>  (32) 


>  <InstanceId>  (32) 
4FTC_H6K_A_301

>  <ChemCompId>  (32) 
H6K

>  <PdbId>  (32) 
4FTC

>  <ResidueNumber>  (32) 
301

>  <InChI>  (32) 
InChI=1S/C15H11N7O/c16-7-11-8-18-14(9-17-11)20-15(23)19-13-6-12(21-22-13)10-4-2-1-3-5-10/h1-6,8-9H,(H3,18,19,20,21,22,23)

>  <InChIKey>  (32) 
CUGADHZZTWSNMF-UHFFFAOYSA-N

>  <SMILES>  (32) 
c1ccc(cc1)c2cc(n[nH]2)NC(=O)Nc3cnc(cn3)C#N

>  <MissingHeavyAtoms>  (32) 
0

>  <Model>  (32) 
1

>  <AltIds>  (32) 


>  <pKI>  (32) 
7.63

>  <ChemblID>  (32) 
-

>  <standardized_canonical_smiles>  (32) 
N#Cc1cnc(NC(=O)Nc2cc(-c3ccccc3)[nH]n2)cn1

$$$$
4FTJ_H8K_A_301
     RDKit          3D

 26 30  0  0  0  0  0  0  0  0999 V2000
   25.4470  -10.7770    7.0320 O   0  0  0  0  0  0  0  0  0  0  0  0
   25.3160   -9.6520    7.9080 C   0  0  0  0  0  0  0  0  0  0  0  0
   24.7270   -8.4720    7.1590 C   0  0  0  0  0  0  0  0  0  0  0  0
   23.2030   -8.4430    7.2650 C   0  0  0  0  0  0  0  0  0  0  0  0
   22.7350   -8.2430    8.6980 C   0  0  0  0  0  0  0  0  0  0  0  0
   23.7480   -8.8030    9.6800 C   0  0  0  0  0  0  0  0  0  0  0  0
   24.4680  -10.0200    9.1070 C   0  0  0  0  0  0  0  0  0  0  0  0
   22.4320   -6.8190    8.9440 N   0  0  0  0  0  0  0  0  0  0  0  0
   21.8310   -6.4390   10.2250 C   0  0  0  0  0  0  0  0  0  0  0  0
   20.6810   -5.4880   10.0100 C   0  0  0  0  0  0  0  0  0  0  0  0
   19.4310   -5.7370   10.5680 C   0  0  0  0  0  0  0  0  0  0  0  0
   18.3340   -4.9300   10.2900 C   0  0  0  0  0  0  0  0  0  0  0  0
   16.9110   -5.0390   10.7490 C   0  0  0  0  0  0  0  0  0  0  0  0
   16.2500   -3.8990   10.1190 C   0  0  0  0  0  0  0  0  0  0  0  0
   15.0680   -3.1560    9.9860 C   0  0  0  0  0  0  0  0  0  0  0  0
   13.8170   -3.3730   10.6360 C   0  0  0  0  0  0  0  0  0  0  0  0
   13.4340   -4.4310   11.5160 C   0  0  0  0  0  0  0  0  0  0  0  0
   12.2150   -4.1460   11.9710 C   0  0  0  0  0  0  0  0  0  0  0  0
   11.7750   -2.9610   11.4400 O   0  0  0  0  0  0  0  0  0  0  0  0
   12.7700   -2.5180   10.6230 C   0  0  0  0  0  0  0  0  0  0  0  0
   15.3430   -2.1060    9.1790 N   0  0  0  0  0  0  0  0  0  0  0  0
   16.6470   -2.0960    8.7700 N   0  0  0  0  0  0  0  0  0  0  0  0
   17.1990   -3.1750    9.3360 C   0  0  0  0  0  0  0  0  0  0  0  0
   18.4840   -3.8310    9.4470 C   0  0  0  0  0  0  0  0  0  0  0  0
   19.7350   -3.5620    8.8950 C   0  0  0  0  0  0  0  0  0  0  0  0
   20.8150   -4.3790    9.1800 C   0  0  0  0  0  0  0  0  0  0  0  0
  2  1  1  0
  3  2  1  0
  7  2  1  0
  4  3  1  0
  5  4  1  0
  6  5  1  0
  8  5  1  0
  7  6  1  0
  9  8  1  0
 10  9  1  0
 11 10  2  0
 26 10  1  0
 12 11  1  0
 13 12  1  0
 24 12  2  0
 14 13  1  0
 15 14  2  0
 23 14  1  0
 16 15  1  0
 21 15  1  0
 17 16  1  0
 20 16  2  0
 18 17  2  0
 19 18  1  0
 20 19  1  0
 22 21  1  0
 23 22  2  0
 24 23  1  0
 25 24  1  0
 26 25  2  0
A    1
O1
A    2
C1
A    3
C6
A    4
C5
A    5
C4
A    6
C3
A    7
C2
A    8
N1
A    9
C7
A   10
C8
A   11
C21
A   12
C12
A   13
C13
A   14
C14
A   15
C16
A   16
C17
A   17
C20
A   18
C19
A   19
O2
A   20
C18
A   21
N3
A   22
N2
A   23
C15
A   24
C11
A   25
C10
A   26
C9
M  END
>  <Id>  (33) 
4FTJ_H8K_A_301

>  <ChainId>  (33) 
A

>  <AsymId>  (33) 
B

>  <SeqNum>  (33) 
301

>  <Name>  (33) 
trans-4-({[3-(furan-3-yl)-2,4-dihydroindeno[1,2-c]pyrazol-6-yl]methyl}amino)cyclohexanol

>  <SystematicName>  (33) 
4-[[3-(furan-3-yl)-2,4-dihydroindeno[1,2-c]pyrazol-6-yl]methylamino]cyclohexan-1-ol

>  <Synonyms>  (33) 


>  <Type>  (33) 
NON-POLYMER

>  <Formula>  (33) 
C21 H23 N3 O2

>  <ObservedFormula>  (33) 
C21 N3 O2

>  <MolecularWeight>  (33) 
349.426

>  <ModifiedDate>  (33) 
2012-08-17

>  <Parent>  (33) 


>  <OneLetterCode>  (33) 


>  <SubcomponentList>  (33) 


>  <AmbiguousFlag>  (33) 
N

>  <InsertionCode>  (33) 


>  <InstanceId>  (33) 
4FTJ_H8K_A_301

>  <ChemCompId>  (33) 
H8K

>  <PdbId>  (33) 
4FTJ

>  <ResidueNumber>  (33) 
301

>  <InChI>  (33) 
InChI=1S/C21H23N3O2/c25-17-4-2-16(3-5-17)22-11-13-1-6-18-15(9-13)10-19-20(23-24-21(18)19)14-7-8-26-12-14/h1,6-9,12,16-17,22,25H,2-5,10-11H2,(H,23,24)/t16-,17-

>  <InChIKey>  (33) 
MQYHCTJCBXXBCX-QAQDUYKDSA-N

>  <SMILES>  (33) 
c1cc-2c(cc1CNC3CCC(CC3)O)Cc4c2n[nH]c4c5ccoc5

>  <MissingHeavyAtoms>  (33) 
0

>  <Model>  (33) 
1

>  <AltIds>  (33) 


>  <pKI>  (33) 
6.57

>  <ChemblID>  (33) 
-

>  <standardized_canonical_smiles>  (33) 
O[C@H]1CC[C@H](NCc2ccc3c(c2)Cc2c-3n[nH]c2-c2ccoc2)CC1

$$$$
1NVS_UCM_A_400
     RDKit          3D

 30 37  0  0  0  0  0  0  0  0999 V2000
    6.3370   10.2630   19.4530 N   0  0  0  0  0  0  0  0  0  0  0  0
    4.9270    9.6930   19.4870 C   0  0  0  0  0  0  0  0  0  0  0  0
    3.9870   10.2130   20.0680 O   0  0  0  0  0  0  0  0  0  0  0  0
    4.8800    8.4450   18.7220 C   0  0  0  0  0  0  0  0  0  0  0  0
    3.7830    7.5530   18.4640 C   0  0  0  0  0  0  0  0  0  0  0  0
    2.3870    7.4760   18.7990 C   0  0  0  0  0  0  0  0  0  0  0  0
    1.8740    6.2920   18.1930 C   0  0  0  0  0  0  0  0  0  0  0  0
    0.4900    5.9220   18.3350 C   0  0  0  0  0  0  0  0  0  0  0  0
   -0.4050    6.7390   19.0910 C   0  0  0  0  0  0  0  0  0  0  0  0
    0.0850    7.9280   19.7090 C   0  0  0  0  0  0  0  0  0  0  0  0
    1.4600    8.2870   19.5600 C   0  0  0  0  0  0  0  0  0  0  0  0
    2.9280    5.6750   17.5190 N   0  0  0  0  0  0  0  0  0  0  0  0
    4.0930    6.4170   17.6690 C   0  0  0  0  0  0  0  0  0  0  0  0
    5.3640    6.1650   17.1600 C   0  0  0  0  0  0  0  0  0  0  0  0
    5.8000    5.1030   16.3760 N   0  0  0  0  0  0  0  0  0  0  0  0
    7.1480    5.2390   16.0860 C   0  0  0  0  0  0  0  0  0  0  0  0
    7.6020    6.4390   16.7080 C   0  0  0  0  0  0  0  0  0  0  0  0
    8.9950    6.7870   16.5340 C   0  0  0  0  0  0  0  0  0  0  0  0
    9.8900    5.9780   15.7760 C   0  0  0  0  0  0  0  0  0  0  0  0
    9.4120    4.7830   15.1670 C   0  0  0  0  0  0  0  0  0  0  0  0
    8.0420    4.4130   15.3190 C   0  0  0  0  0  0  0  0  0  0  0  0
    6.4740    7.0150   17.3860 C   0  0  0  0  0  0  0  0  0  0  0  0
    6.2080    8.1800   18.1890 C   0  0  0  0  0  0  0  0  0  0  0  0
    7.0980    9.2560   18.6150 C   0  0  0  0  0  0  0  0  0  0  0  0
    8.2800    9.3470   18.3440 O   0  0  0  0  0  0  0  0  0  0  0  0
    4.9590    3.9740   15.9060 C   0  0  0  0  0  0  0  0  0  0  0  0
    3.9990    3.6000   16.9070 O   0  0  0  0  0  0  0  0  0  0  0  0
    2.8140    4.4020   16.7530 C   0  0  0  0  0  0  0  0  0  0  0  0
    2.7220    4.6730   15.2460 C   0  0  0  0  0  0  0  0  0  0  0  0
    4.1190    4.3910   14.6920 C   0  0  0  0  0  0  0  0  0  0  0  0
  2  1  1  0
 24  1  1  0
  3  2  2  0
  4  2  1  0
  5  4  2  0
 23  4  1  0
  6  5  1  0
 13  5  1  0
  7  6  2  0
 11  6  1  0
  8  7  1  0
 12  7  1  0
  9  8  2  0
 10  9  1  0
 11 10  2  0
 13 12  1  0
 28 12  1  0
 14 13  2  0
 15 14  1  0
 22 14  1  0
 16 15  1  0
 26 15  1  0
 17 16  2  0
 21 16  1  0
 18 17  1  0
 22 17  1  0
 19 18  2  0
 20 19  1  0
 21 20  2  0
 23 22  2  0
 24 23  1  0
 25 24  2  0
 27 26  1  0
 30 26  1  0
 28 27  1  0
 29 28  1  0
 30 29  1  0
A    1
N18
A    2
C29
A    3
O30
A    4
C10
A    5
C09
A    6
C15
A    7
C16
A    8
C34
A    9
C33
A   10
C32
A   11
C31
A   12
N17
A   13
C08
A   14
C07
A   15
N06
A   16
C14
A   17
C13
A   18
C22
A   19
C21
A   20
C20
A   21
C19
A   22
C12
A   23
C11
A   24
C27
A   25
O28
A   26
C05
A   27
O01
A   28
C02
A   29
C03
A   30
C04
M  END
>  <Id>  (34) 
1NVS_UCM_A_400

>  <ChainId>  (34) 
A

>  <AsymId>  (34) 
D

>  <SeqNum>  (34) 
400

>  <Name>  (34) 
REL-(9R,12S)-9,10,11,12-TETRAHYDRO-9,12-EPOXY-1H-DIINDOLO[1,2,3-FG:3',2',1'-KL]PYRROLO[3,4-I][1,6]BENZODIAZOCINE-1,3(2H)-DIONE

>  <SystematicName>  (34) 
null

>  <Synonyms>  (34) 
SB218078

>  <Type>  (34) 
NON-POLYMER

>  <Formula>  (34) 
C24 H15 N3 O3

>  <ObservedFormula>  (34) 
C24 N3 O3

>  <MolecularWeight>  (34) 
393.394

>  <ModifiedDate>  (34) 
2011-06-04

>  <Parent>  (34) 


>  <OneLetterCode>  (34) 


>  <SubcomponentList>  (34) 


>  <AmbiguousFlag>  (34) 
N

>  <InsertionCode>  (34) 


>  <InstanceId>  (34) 
1NVS_UCM_A_400

>  <ChemCompId>  (34) 
UCM

>  <PdbId>  (34) 
1NVS

>  <ResidueNumber>  (34) 
400

>  <InChI>  (34) 
InChI=1S/C24H15N3O3/c28-23-19-17-11-5-1-3-7-13(11)26-15-9-10-16(30-15)27-14-8-4-2-6-12(14)18(22(27)21(17)26)20(19)24(29)25-23/h1-8,15-16H,9-10H2,(H,25,28,29)/t15-,16+

>  <InChIKey>  (34) 
OTPNDVKVEAIXTI-IYBDPMFKSA-N

>  <SMILES>  (34) 
c1ccc2c(c1)c3c4c(c5c6ccccc6n7c5c3n2[C@H]8CC[C@@H]7O8)C(=O)NC4=O

>  <MissingHeavyAtoms>  (34) 
0

>  <Model>  (34) 
1

>  <AltIds>  (34) 


>  <pKI>  (34) 
7.82

>  <ChemblID>  (34) 
-

>  <standardized_canonical_smiles>  (34) 
O=C1NC(=O)c2c1c1c3ccccc3n3c1c1c2c2ccccc2n1[C@H]1CC[C@@H]3O1

$$$$
4FSZ_HK8_A_301
     RDKit          3D

 21 23  0  0  0  0  0  0  0  0999 V2000
   16.3960   -2.1250    9.2970 O   0  0  0  0  0  0  0  0  0  0  0  0
   17.2510   -2.9840    9.5180 C   0  0  0  0  0  0  0  0  0  0  0  0
   16.8400   -4.2980   10.1050 C   0  0  0  0  0  0  0  0  0  0  0  0
   15.4960   -4.6500    9.9440 C   0  0  0  0  0  0  0  0  0  0  0  0
   14.9660   -5.7520   10.5810 C   0  0  0  0  0  0  0  0  0  0  0  0
   15.7810   -6.5520   11.3500 C   0  0  0  0  0  0  0  0  0  0  0  0
   15.1040   -7.9120   12.1920 Cl  0  0  0  0  0  0  0  0  0  0  0  0
   17.1280   -6.2720   11.4960 C   0  0  0  0  0  0  0  0  0  0  0  0
   17.6640   -5.1360   10.8900 C   0  0  0  0  0  0  0  0  0  0  0  0
   19.0120   -4.8310   11.1760 N   0  0  0  0  0  0  0  0  0  0  0  0
   18.5430   -2.7510    9.2050 N   0  0  0  0  0  0  0  0  0  0  0  0
   19.7100   -3.5490    9.2100 C   0  0  0  0  0  0  0  0  0  0  0  0
   19.9180   -4.5890   10.1240 C   0  0  0  0  0  0  0  0  0  0  0  0
   21.1000   -5.3310   10.0610 C   0  0  0  0  0  0  0  0  0  0  0  0
   22.0680   -5.0170    9.1240 C   0  0  0  0  0  0  0  0  0  0  0  0
   20.6960   -3.2590    8.2690 C   0  0  0  0  0  0  0  0  0  0  0  0
   21.8860   -3.9780    8.2230 C   0  0  0  0  0  0  0  0  0  0  0  0
   22.9500   -3.6310    7.2090 C   0  0  0  0  0  0  0  0  0  0  0  0
   22.8060   -4.4160    5.9360 C   0  0  0  0  0  0  0  0  0  0  0  0
   22.1140   -4.0430    5.0130 O   0  0  0  0  0  0  0  0  0  0  0  0
   23.4740   -5.5430    5.9370 O   0  0  0  0  0  0  0  0  0  0  0  0
  2  1  2  0
  3  2  1  0
 11  2  1  0
  4  3  2  0
  9  3  1  0
  5  4  1  0
  6  5  2  0
  7  6  1  0
  8  6  1  0
  9  8  2  0
 10  9  1  0
 13 10  1  0
 12 11  1  0
 13 12  2  0
 16 12  1  0
 14 13  1  0
 15 14  2  0
 17 15  1  0
 17 16  2  0
 18 17  1  0
 19 18  1  0
 20 19  2  0
 21 19  1  0
A    1
O3
A    2
C13
A    3
C12
A    4
C11
A    5
C10
A    6
C9
A    7
CL
A    8
C8
A    9
C7
A   10
N1
A   11
N2
A   12
C14
A   13
C6
A   14
C5
A   15
C4
A   16
C15
A   17
C3
A   18
C2
A   19
C1
A   20
O2
A   21
O1
M  END
>  <Id>  (35) 
4FSZ_HK8_A_301

>  <ChainId>  (35) 
A

>  <AsymId>  (35) 
B

>  <SeqNum>  (35) 
301

>  <Name>  (35) 
(3-chloro-11-oxo-10,11-dihydro-5H-dibenzo[b,e][1,4]diazepin-8-yl)acetic acid

>  <SystematicName>  (35) 
2-(9-chloranyl-6-oxidanylidene-5,11-dihydrobenzo[b][1,4]benzodiazepin-3-yl)ethanoic acid

>  <Synonyms>  (35) 


>  <Type>  (35) 
NON-POLYMER

>  <Formula>  (35) 
C15 H11 Cl N2 O3

>  <ObservedFormula>  (35) 
C15 Cl N2 O3

>  <MolecularWeight>  (35) 
302.712

>  <ModifiedDate>  (35) 
2012-08-17

>  <Parent>  (35) 


>  <OneLetterCode>  (35) 


>  <SubcomponentList>  (35) 


>  <AmbiguousFlag>  (35) 
N

>  <InsertionCode>  (35) 


>  <InstanceId>  (35) 
4FSZ_HK8_A_301

>  <ChemCompId>  (35) 
HK8

>  <PdbId>  (35) 
4FSZ

>  <ResidueNumber>  (35) 
301

>  <InChI>  (35) 
InChI=1S/C15H11ClN2O3/c16-9-2-3-10-12(7-9)17-11-4-1-8(6-14(19)20)5-13(11)18-15(10)21/h1-5,7,17H,6H2,(H,18,21)(H,19,20)

>  <InChIKey>  (35) 
MFBFXFHWNXYFCJ-UHFFFAOYSA-N

>  <SMILES>  (35) 
c1cc2c(cc1CC(=O)O)NC(=O)c3ccc(cc3N2)Cl

>  <MissingHeavyAtoms>  (35) 
0

>  <Model>  (35) 
1

>  <AltIds>  (35) 


>  <pKI>  (35) 
6.97

>  <ChemblID>  (35) 
-

>  <standardized_canonical_smiles>  (35) 
O=C(O)Cc1ccc2c(c1)NC(=O)c1ccc(Cl)cc1N2

$$$$
4FTI_H7K_A_301
     RDKit          3D

 30 34  0  0  0  0  0  0  0  0999 V2000
   11.0870   -5.6850   13.4470 O   0  0  0  0  0  0  0  0  0  0  0  0
   12.1620   -5.6320   12.9010 C   0  0  0  0  0  0  0  0  0  0  0  0
   13.1180   -6.5590   13.0260 O   0  0  0  0  0  0  0  0  0  0  0  0
   12.7590   -7.7710   13.7380 C   0  0  0  0  0  0  0  0  0  0  0  0
   12.5790   -4.5150   11.9920 C   0  0  0  0  0  0  0  0  0  0  0  0
   13.8080   -4.5460   11.3750 O   0  0  0  0  0  0  0  0  0  0  0  0
   11.9170   -3.3940   11.6240 C   0  0  0  0  0  0  0  0  0  0  0  0
   12.7630   -2.6810   10.7440 C   0  0  0  0  0  0  0  0  0  0  0  0
   13.8940   -3.4010   10.6130 C   0  0  0  0  0  0  0  0  0  0  0  0
   15.1330   -3.2040    9.8920 C   0  0  0  0  0  0  0  0  0  0  0  0
   15.3760   -2.1390    9.0960 N   0  0  0  0  0  0  0  0  0  0  0  0
   16.6700   -2.1060    8.6580 N   0  0  0  0  0  0  0  0  0  0  0  0
   17.2540   -3.1820    9.1930 C   0  0  0  0  0  0  0  0  0  0  0  0
   18.5540   -3.8070    9.2780 C   0  0  0  0  0  0  0  0  0  0  0  0
   19.7910   -3.4980    8.7140 C   0  0  0  0  0  0  0  0  0  0  0  0
   20.9030   -4.2700    9.0010 C   0  0  0  0  0  0  0  0  0  0  0  0
   16.3350   -3.9350    9.9820 C   0  0  0  0  0  0  0  0  0  0  0  0
   17.0250   -5.0870   10.5650 C   0  0  0  0  0  0  0  0  0  0  0  0
   18.4510   -4.9000   10.1320 C   0  0  0  0  0  0  0  0  0  0  0  0
   19.5820   -5.6560   10.4220 C   0  0  0  0  0  0  0  0  0  0  0  0
   20.8160   -5.3670    9.8510 C   0  0  0  0  0  0  0  0  0  0  0  0
   21.9960   -6.2820   10.0620 C   0  0  0  0  0  0  0  0  0  0  0  0
   22.1010   -7.2470    8.9650 N   0  0  0  0  0  0  0  0  0  0  0  0
   23.4070   -7.8930    8.7270 C   0  0  0  0  0  0  0  0  0  0  0  0
   23.4440   -8.1910    7.2340 C   0  0  0  0  0  0  0  0  0  0  0  0
   24.7910   -8.7690    6.7890 C   0  0  0  0  0  0  0  0  0  0  0  0
   23.5920   -9.1670    9.5360 C   0  0  0  0  0  0  0  0  0  0  0  0
   24.4180  -10.2130    8.7840 C   0  0  0  0  0  0  0  0  0  0  0  0
   25.4560   -9.5600    7.8960 C   0  0  0  0  0  0  0  0  0  0  0  0
   26.3250  -10.5520    7.3390 O   0  0  0  0  0  0  0  0  0  0  0  0
  2  1  2  0
  3  2  1  0
  5  2  1  0
  4  3  1  0
  6  5  1  0
  7  5  2  0
  9  6  1  0
  8  7  1  0
  9  8  2  0
 10  9  1  0
 11 10  1  0
 17 10  2  0
 12 11  1  0
 13 12  2  0
 14 13  1  0
 17 13  1  0
 15 14  2  0
 19 14  1  0
 16 15  1  0
 21 16  2  0
 18 17  1  0
 19 18  1  0
 20 19  2  0
 21 20  1  0
 22 21  1  0
 23 22  1  0
 24 23  1  0
 25 24  1  0
 27 24  1  0
 26 25  1  0
 29 26  1  0
 28 27  1  0
 29 28  1  0
 30 29  1  0
A    1
O3
A    2
C21
A    3
O4
A    4
C22
A    5
C18
A    6
O2
A    7
C19
A    8
C20
A    9
C17
A   10
C16
A   11
N3
A   12
N2
A   13
C15
A   14
C11
A   15
C10
A   16
C9
A   17
C14
A   18
C13
A   19
C12
A   20
C23
A   21
C8
A   22
C7
A   23
N1
A   24
C4
A   25
C3
A   26
C2
A   27
C5
A   28
C6
A   29
C1
A   30
O1
M  END
>  <Id>  (36) 
4FTI_H7K_A_301

>  <ChainId>  (36) 
A

>  <AsymId>  (36) 
B

>  <SeqNum>  (36) 
301

>  <Name>  (36) 
methyl 5-(6-{[(cis-4-hydroxycyclohexyl)amino]methyl}-2,4-dihydroindeno[1,2-c]pyrazol-3-yl)furan-2-carboxylate

>  <SystematicName>  (36) 
methyl 5-[6-[[(4-oxidanylcyclohexyl)amino]methyl]-2,4-dihydroindeno[1,2-c]pyrazol-3-yl]furan-2-carboxylate

>  <Synonyms>  (36) 


>  <Type>  (36) 
NON-POLYMER

>  <Formula>  (36) 
C23 H25 N3 O4

>  <ObservedFormula>  (36) 
C23 N3 O4

>  <MolecularWeight>  (36) 
407.462

>  <ModifiedDate>  (36) 
2012-08-17

>  <Parent>  (36) 


>  <OneLetterCode>  (36) 


>  <SubcomponentList>  (36) 


>  <AmbiguousFlag>  (36) 
N

>  <InsertionCode>  (36) 


>  <InstanceId>  (36) 
4FTI_H7K_A_301

>  <ChemCompId>  (36) 
H7K

>  <PdbId>  (36) 
4FTI

>  <ResidueNumber>  (36) 
301

>  <InChI>  (36) 
InChI=1S/C23H25N3O4/c1-29-23(28)20-9-8-19(30-20)22-18-11-14-10-13(2-7-17(14)21(18)25-26-22)12-24-15-3-5-16(27)6-4-15/h2,7-10,15-16,24,27H,3-6,11-12H2,1H3,(H,25,26)/t15-,16+

>  <InChIKey>  (36) 
MCIHIBVPUQANQG-IYBDPMFKSA-N

>  <SMILES>  (36) 
COC(=O)c1ccc(o1)c2c3c(n[nH]2)-c4ccc(cc4C3)CNC5CCC(CC5)O

>  <MissingHeavyAtoms>  (36) 
0

>  <Model>  (36) 
1

>  <AltIds>  (36) 


>  <pKI>  (36) 
6.41

>  <ChemblID>  (36) 
-

>  <standardized_canonical_smiles>  (36) 
COC(=O)c1ccc(-c2[nH]nc3c2Cc2cc(CN[C@H]4CC[C@@H](O)CC4)ccc2-3)o1

$$$$
4FT7_H3K_A_301
     RDKit          3D

 26 28  0  0  0  0  0  0  0  0999 V2000
   10.9830   -5.5530   13.7150 N   0  0  0  0  0  0  0  0  0  0  0  0
   11.7600   -5.0370   13.0610 C   0  0  0  0  0  0  0  0  0  0  0  0
   12.7160   -4.4060   12.2290 C   0  0  0  0  0  0  0  0  0  0  0  0
   12.4220   -3.1820   11.7550 N   0  0  0  0  0  0  0  0  0  0  0  0
   13.2830   -2.6470   10.8840 C   0  0  0  0  0  0  0  0  0  0  0  0
   13.9150   -5.0830   11.8480 C   0  0  0  0  0  0  0  0  0  0  0  0
   14.7780   -4.5150   10.9980 N   0  0  0  0  0  0  0  0  0  0  0  0
   14.4670   -3.3060   10.5000 C   0  0  0  0  0  0  0  0  0  0  0  0
   15.3440   -2.6910    9.5940 N   0  0  0  0  0  0  0  0  0  0  0  0
   16.6180   -2.9900    9.1710 C   0  0  0  0  0  0  0  0  0  0  0  0
   17.1730   -2.3370    8.2910 O   0  0  0  0  0  0  0  0  0  0  0  0
   17.2110   -4.0530    9.8240 N   0  0  0  0  0  0  0  0  0  0  0  0
   18.5710   -4.5030    9.6930 C   0  0  0  0  0  0  0  0  0  0  0  0
   19.4950   -3.8000    8.9120 C   0  0  0  0  0  0  0  0  0  0  0  0
   20.7780   -4.2930    8.7690 C   0  0  0  0  0  0  0  0  0  0  0  0
   22.0130   -3.3390    7.6840 Br  0  0  0  0  0  0  0  0  0  0  0  0
   21.1800   -5.4580    9.3740 C   0  0  0  0  0  0  0  0  0  0  0  0
   20.2790   -6.1560   10.1540 C   0  0  0  0  0  0  0  0  0  0  0  0
   18.9800   -5.6900   10.3400 C   0  0  0  0  0  0  0  0  0  0  0  0
   18.1480   -6.3740   11.2600 N   0  0  0  0  0  0  0  0  0  0  0  0
   17.5890   -7.6540   10.8130 C   0  0  0  0  0  0  0  0  0  0  0  0
   16.4810   -8.1970   11.7130 C   0  0  0  0  0  0  0  0  0  0  0  0
   16.8390   -8.0410   13.1880 C   0  0  0  0  0  0  0  0  0  0  0  0
   18.0370   -5.8760   12.6300 C   0  0  0  0  0  0  0  0  0  0  0  0
   17.0570   -6.5880   13.5390 C   0  0  0  0  0  0  0  0  0  0  0  0
   17.4960   -6.4480   14.8910 O   0  0  0  0  0  0  0  0  0  0  0  0
  2  1  3  0
  3  2  1  0
  4  3  2  0
  6  3  1  0
  5  4  1  0
  8  5  2  0
  7  6  2  0
  8  7  1  0
  9  8  1  0
 10  9  1  0
 11 10  2  0
 12 10  1  0
 13 12  1  0
 14 13  2  0
 19 13  1  0
 15 14  1  0
 16 15  1  0
 17 15  2  0
 18 17  1  0
 19 18  2  0
 20 19  1  0
 21 20  1  0
 24 20  1  0
 22 21  1  0
 23 22  1  0
 25 23  1  0
 25 24  1  0
 26 25  1  0
A    1
N6
A    2
C17
A    3
C15
A    4
N4
A    5
C14
A    6
C16
A    7
N5
A    8
C13
A    9
N3
A   10
C12
A   11
O2
A   12
N2
A   13
C11
A   14
C10
A   15
C9
A   16
BR
A   17
C8
A   18
C7
A   19
C6
A   20
N1
A   21
C4
A   22
C3
A   23
C2
A   24
C5
A   25
C1
A   26
O1
M  END
>  <Id>  (37) 
4FT7_H3K_A_301

>  <ChainId>  (37) 
A

>  <AsymId>  (37) 
B

>  <SeqNum>  (37) 
301

>  <Name>  (37) 
1-{5-bromo-2-[(3R)-3-hydroxypiperidin-1-yl]phenyl}-3-(5-cyanopyrazin-2-yl)urea

>  <SystematicName>  (37) 
1-[5-bromanyl-2-[(3R)-3-oxidanylpiperidin-1-yl]phenyl]-3-(5-cyanopyrazin-2-yl)urea

>  <Synonyms>  (37) 


>  <Type>  (37) 
NON-POLYMER

>  <Formula>  (37) 
C17 H17 Br N6 O2

>  <ObservedFormula>  (37) 
Br C17 N6 O2

>  <MolecularWeight>  (37) 
417.26

>  <ModifiedDate>  (37) 
2012-08-17

>  <Parent>  (37) 


>  <OneLetterCode>  (37) 


>  <SubcomponentList>  (37) 


>  <AmbiguousFlag>  (37) 
N

>  <InsertionCode>  (37) 


>  <InstanceId>  (37) 
4FT7_H3K_A_301

>  <ChemCompId>  (37) 
H3K

>  <PdbId>  (37) 
4FT7

>  <ResidueNumber>  (37) 
301

>  <InChI>  (37) 
InChI=1S/C17H17BrN6O2/c18-11-3-4-15(24-5-1-2-13(25)10-24)14(6-11)22-17(26)23-16-9-20-12(7-19)8-21-16/h3-4,6,8-9,13,25H,1-2,5,10H2,(H2,21,22,23,26)/t13-/m1/s1

>  <InChIKey>  (37) 
BBKALDDXSCLMBB-CYBMUJFWSA-N

>  <SMILES>  (37) 
c1cc(c(cc1Br)NC(=O)Nc2cnc(cn2)C#N)N3CCC[C@H](C3)O

>  <MissingHeavyAtoms>  (37) 
0

>  <Model>  (37) 
1

>  <AltIds>  (37) 


>  <pKI>  (37) 
8.93

>  <ChemblID>  (37) 
-

>  <standardized_canonical_smiles>  (37) 
N#Cc1cnc(NC(=O)Nc2cc(Br)ccc2N2CCC[C@@H](O)C2)cn1

$$$$
1NVR_STU_A_400
     RDKit          3D

 35 42  0  0  0  0  0  0  0  0999 V2000
    4.1090    3.8420   16.8980 O   0  0  0  0  0  0  0  0  0  0  0  0
    2.8780    4.4680   17.0890 C   0  0  0  0  0  0  0  0  0  0  0  0
    2.1340    4.5600   15.7110 C   0  0  0  0  0  0  0  0  0  0  0  0
    2.9710    3.9240   14.5620 C   0  0  0  0  0  0  0  0  0  0  0  0
    4.3910    4.5500   14.5100 C   0  0  0  0  0  0  0  0  0  0  0  0
    5.0460    4.0680   15.8630 C   0  0  0  0  0  0  0  0  0  0  0  0
    5.6760    2.6840   15.6240 C   0  0  0  0  0  0  0  0  0  0  0  0
    6.0370    5.1320   16.2960 N   0  0  0  0  0  0  0  0  0  0  0  0
    5.5620    6.2030   17.1420 C   0  0  0  0  0  0  0  0  0  0  0  0
    4.3440    6.4920   17.6880 C   0  0  0  0  0  0  0  0  0  0  0  0
    4.1150    7.6680   18.5110 C   0  0  0  0  0  0  0  0  0  0  0  0
    5.3020    8.5120   18.7060 C   0  0  0  0  0  0  0  0  0  0  0  0
    6.4950    8.2250   18.1650 C   0  0  0  0  0  0  0  0  0  0  0  0
    6.7090    7.0610   17.3510 C   0  0  0  0  0  0  0  0  0  0  0  0
    7.8090    6.5300   16.6450 C   0  0  0  0  0  0  0  0  0  0  0  0
    7.4000    5.3150   15.9840 C   0  0  0  0  0  0  0  0  0  0  0  0
    8.3350    4.6050   15.2010 C   0  0  0  0  0  0  0  0  0  0  0  0
    9.6440    5.0670   15.0540 C   0  0  0  0  0  0  0  0  0  0  0  0
   10.0920    6.2950   15.6990 C   0  0  0  0  0  0  0  0  0  0  0  0
    9.1290    6.9900   16.4930 C   0  0  0  0  0  0  0  0  0  0  0  0
    7.5090    9.2890   18.5160 C   0  0  0  0  0  0  0  0  0  0  0  0
    6.6460   10.1510   19.3150 N   0  0  0  0  0  0  0  0  0  0  0  0
    5.3800    9.7830   19.4780 C   0  0  0  0  0  0  0  0  0  0  0  0
    4.4950   10.3560   20.1050 O   0  0  0  0  0  0  0  0  0  0  0  0
    2.7840    7.6920   18.8930 C   0  0  0  0  0  0  0  0  0  0  0  0
    2.1730    6.5290   18.2940 C   0  0  0  0  0  0  0  0  0  0  0  0
    0.7880    6.2280   18.4640 C   0  0  0  0  0  0  0  0  0  0  0  0
    0.0180    7.1080   19.2520 C   0  0  0  0  0  0  0  0  0  0  0  0
    0.6160    8.2760   19.8560 C   0  0  0  0  0  0  0  0  0  0  0  0
    1.9710    8.5510   19.6730 C   0  0  0  0  0  0  0  0  0  0  0  0
    3.1040    5.8480   17.6020 N   0  0  0  0  0  0  0  0  0  0  0  0
    4.2020    5.9960   14.5360 O   0  0  0  0  0  0  0  0  0  0  0  0
    5.1750    6.6630   13.7510 C   0  0  0  0  0  0  0  0  0  0  0  0
    2.1760    4.1590   13.2070 N   0  0  0  0  0  0  0  0  0  0  0  0
    2.9260    3.5080   12.0710 C   0  0  0  0  0  0  0  0  0  0  0  0
  2  1  1  0
  6  1  1  0
  3  2  1  0
 31  2  1  0
  4  3  1  0
  5  4  1  0
 34  4  1  0
  6  5  1  0
 32  5  1  0
  7  6  1  0
  8  6  1  0
  9  8  1  0
 16  8  1  0
 10  9  2  0
 14  9  1  0
 11 10  1  0
 31 10  1  0
 12 11  2  0
 25 11  1  0
 13 12  1  0
 23 12  1  0
 14 13  2  0
 21 13  1  0
 15 14  1  0
 16 15  2  0
 20 15  1  0
 17 16  1  0
 18 17  2  0
 19 18  1  0
 20 19  2  0
 22 21  1  0
 23 22  1  0
 24 23  2  0
 26 25  2  0
 30 25  1  0
 27 26  1  0
 31 26  1  0
 28 27  2  0
 29 28  1  0
 30 29  2  0
 33 32  1  0
 35 34  1  0
A    1
O4
A    2
C25
A    3
C24
A    4
C23
A    5
C22
A    6
C21
A    7
C26
A    8
N2
A    9
C18
A   10
C19
A   11
C6
A   12
C7
A   13
C10
A   14
C11
A   15
C12
A   16
C17
A   17
C16
A   18
C15
A   19
C14
A   20
C13
A   21
C9
A   22
N1
A   23
C8
A   24
O5
A   25
C5
A   26
C20
A   27
C1
A   28
C2
A   29
C3
A   30
C4
A   31
N3
A   32
O6
A   33
C27
A   34
N4
A   35
C28
M  END
>  <Id>  (38) 
1NVR_STU_A_400

>  <ChainId>  (38) 
A

>  <AsymId>  (38) 
D

>  <SeqNum>  (38) 
400

>  <Name>  (38) 
STAUROSPORINE

>  <SystematicName>  (38) 
null

>  <Synonyms>  (38) 


>  <Type>  (38) 
NON-POLYMER

>  <Formula>  (38) 
C28 H26 N4 O3

>  <ObservedFormula>  (38) 
C28 N4 O3

>  <MolecularWeight>  (38) 
466.531

>  <ModifiedDate>  (38) 
2011-06-04

>  <Parent>  (38) 


>  <OneLetterCode>  (38) 


>  <SubcomponentList>  (38) 


>  <AmbiguousFlag>  (38) 
N

>  <InsertionCode>  (38) 


>  <InstanceId>  (38) 
1NVR_STU_A_400

>  <ChemCompId>  (38) 
STU

>  <PdbId>  (38) 
1NVR

>  <ResidueNumber>  (38) 
400

>  <InChI>  (38) 
InChI=1S/C28H26N4O3/c1-28-26(34-3)17(29-2)12-20(35-28)31-18-10-6-4-8-14(18)22-23-16(13-30-27(23)33)21-15-9-5-7-11-19(15)32(28)25(21)24(22)31/h4-11,17,20,26,29H,12-13H2,1-3H3,(H,30,33)/t17-,20-,26-,28+/m1/s1

>  <InChIKey>  (38) 
HKSZLNNOFSGOKW-FYTWVXJKSA-N

>  <SMILES>  (38) 
C[C@@]12[C@@H]([C@@H](C[C@@H](O1)n3c4ccccc4c5c3c6n2c7ccccc7c6c8c5C(=O)NC8)NC)OC

>  <MissingHeavyAtoms>  (38) 
0

>  <Model>  (38) 
1

>  <AltIds>  (38) 


>  <pKI>  (38) 
8.11

>  <ChemblID>  (38) 
-

>  <standardized_canonical_smiles>  (38) 
CN[C@@H]1C[C@H]2O[C@@](C)([C@@H]1OC)n1c3ccccc3c3c4c(c5c6ccccc6n2c5c31)C(=O)NC4

$$$$
5OOR_STU_A_301
     RDKit          3D

 35 42  0  0  0  0  0  0  0  0999 V2000
    3.8720   -7.9220   17.1080 O   0  0  0  0  0  0  0  0  0  0  0  0
    2.6230   -7.2430   17.1740 C   0  0  0  0  0  0  0  0  0  0  0  0
    1.8810   -7.0150   15.8570 C   0  0  0  0  0  0  0  0  0  0  0  0
    2.6130   -7.7340   14.7110 C   0  0  0  0  0  0  0  0  0  0  0  0
    4.0430   -7.2760   14.7230 C   0  0  0  0  0  0  0  0  0  0  0  0
    4.7580   -7.7440   16.0360 C   0  0  0  0  0  0  0  0  0  0  0  0
    5.3590   -9.1160   15.7150 C   0  0  0  0  0  0  0  0  0  0  0  0
    5.7330   -6.7140   16.4770 N   0  0  0  0  0  0  0  0  0  0  0  0
    5.3900   -5.6610   17.2770 C   0  0  0  0  0  0  0  0  0  0  0  0
    4.1200   -5.3050   17.9220 C   0  0  0  0  0  0  0  0  0  0  0  0
    4.0160   -4.1120   18.7220 C   0  0  0  0  0  0  0  0  0  0  0  0
    5.2350   -3.3020   18.8460 C   0  0  0  0  0  0  0  0  0  0  0  0
    6.4910   -3.5750   18.2530 C   0  0  0  0  0  0  0  0  0  0  0  0
    6.5510   -4.8010   17.4150 C   0  0  0  0  0  0  0  0  0  0  0  0
    7.5770   -5.4140   16.6510 C   0  0  0  0  0  0  0  0  0  0  0  0
    7.0240   -6.6430   16.0510 C   0  0  0  0  0  0  0  0  0  0  0  0
    7.9310   -7.3770   15.2490 C   0  0  0  0  0  0  0  0  0  0  0  0
    9.2510   -6.9630   15.1220 C   0  0  0  0  0  0  0  0  0  0  0  0
    9.7440   -5.7710   15.7000 C   0  0  0  0  0  0  0  0  0  0  0  0
    8.9030   -5.0200   16.4840 C   0  0  0  0  0  0  0  0  0  0  0  0
    7.4480   -2.5570   18.5410 C   0  0  0  0  0  0  0  0  0  0  0  0
    6.6560   -1.6210   19.3620 N   0  0  0  0  0  0  0  0  0  0  0  0
    5.4020   -2.0290   19.5090 C   0  0  0  0  0  0  0  0  0  0  0  0
    4.5080   -1.4850   20.2060 O   0  0  0  0  0  0  0  0  0  0  0  0
    2.6620   -4.0370   19.1970 C   0  0  0  0  0  0  0  0  0  0  0  0
    2.0270   -5.2470   18.6440 C   0  0  0  0  0  0  0  0  0  0  0  0
    0.7130   -5.4300   18.9340 C   0  0  0  0  0  0  0  0  0  0  0  0
    0.0620   -4.5280   19.7860 C   0  0  0  0  0  0  0  0  0  0  0  0
    0.6670   -3.3550   20.2990 C   0  0  0  0  0  0  0  0  0  0  0  0
    2.0090   -3.1390   20.0420 C   0  0  0  0  0  0  0  0  0  0  0  0
    2.9370   -5.9370   17.8800 N   0  0  0  0  0  0  0  0  0  0  0  0
    3.9350   -5.8470   14.6710 O   0  0  0  0  0  0  0  0  0  0  0  0
    4.9730   -5.1390   14.0080 C   0  0  0  0  0  0  0  0  0  0  0  0
    1.9860   -7.4330   13.4500 N   0  0  0  0  0  0  0  0  0  0  0  0
    0.5400   -7.5530   13.3210 C   0  0  0  0  0  0  0  0  0  0  0  0
  2  1  1  0
  6  1  1  0
  3  2  1  0
 31  2  1  0
  4  3  1  0
  5  4  1  0
 34  4  1  0
  6  5  1  0
 32  5  1  0
  7  6  1  0
  8  6  1  0
  9  8  1  0
 16  8  1  0
 10  9  2  0
 14  9  1  0
 11 10  1  0
 31 10  1  0
 12 11  2  0
 25 11  1  0
 13 12  1  0
 23 12  1  0
 14 13  2  0
 21 13  1  0
 15 14  1  0
 16 15  2  0
 20 15  1  0
 17 16  1  0
 18 17  2  0
 19 18  1  0
 20 19  2  0
 22 21  1  0
 23 22  1  0
 24 23  2  0
 26 25  2  0
 30 25  1  0
 27 26  1  0
 31 26  1  0
 28 27  2  0
 29 28  1  0
 30 29  2  0
 33 32  1  0
 35 34  1  0
A    1
O4
A    2
C25
A    3
C24
A    4
C23
A    5
C22
A    6
C21
A    7
C26
A    8
N2
A    9
C18
A   10
C19
A   11
C6
A   12
C7
A   13
C10
A   14
C11
A   15
C12
A   16
C17
A   17
C16
A   18
C15
A   19
C14
A   20
C13
A   21
C9
A   22
N1
A   23
C8
A   24
O5
A   25
C5
A   26
C20
A   27
C1
A   28
C2
A   29
C3
A   30
C4
A   31
N3
A   32
O6
A   33
C27
A   34
N4
A   35
C28
M  END
>  <Id>  (39) 
5OOR_STU_A_301

>  <ChainId>  (39) 
A

>  <AsymId>  (39) 
B

>  <SeqNum>  (39) 
301

>  <Name>  (39) 
STAUROSPORINE

>  <SystematicName>  (39) 
null

>  <Synonyms>  (39) 


>  <Type>  (39) 
NON-POLYMER

>  <Formula>  (39) 
C28 H26 N4 O3

>  <ObservedFormula>  (39) 
C28 N4 O3

>  <MolecularWeight>  (39) 
466.531

>  <ModifiedDate>  (39) 
2011-06-04

>  <Parent>  (39) 


>  <OneLetterCode>  (39) 


>  <SubcomponentList>  (39) 


>  <AmbiguousFlag>  (39) 
N

>  <InsertionCode>  (39) 


>  <InstanceId>  (39) 
5OOR_STU_A_301

>  <ChemCompId>  (39) 
STU

>  <PdbId>  (39) 
5OOR

>  <ResidueNumber>  (39) 
301

>  <InChI>  (39) 
InChI=1S/C28H26N4O3/c1-28-26(34-3)17(29-2)12-20(35-28)31-18-10-6-4-8-14(18)22-23-16(13-30-27(23)33)21-15-9-5-7-11-19(15)32(28)25(21)24(22)31/h4-11,17,20,26,29H,12-13H2,1-3H3,(H,30,33)/t17-,20-,26-,28+/m1/s1

>  <InChIKey>  (39) 
HKSZLNNOFSGOKW-FYTWVXJKSA-N

>  <SMILES>  (39) 
C[C@@]12[C@@H]([C@@H](C[C@@H](O1)n3c4ccccc4c5c3c6n2c7ccccc7c6c8c5C(=O)NC8)NC)OC

>  <MissingHeavyAtoms>  (39) 
0

>  <Model>  (39) 
1

>  <AltIds>  (39) 


>  <pKI>  (39) 
8.11

>  <ChemblID>  (39) 
-

>  <standardized_canonical_smiles>  (39) 
CN[C@@H]1C[C@H]2O[C@@](C)([C@@H]1OC)n1c3ccccc3c3c4c(c5c6ccccc6n2c5c31)C(=O)NC4

$$$$
2C3J_DBQ_A_1271
     RDKit          3D

 18 20  0  0  0  0  0  0  0  0999 V2000
    3.8910   -1.6130   20.6180 O   0  0  0  0  0  0  0  0  0  0  0  0
    4.6820   -2.1690   19.8560 C   0  0  0  0  0  0  0  0  0  0  0  0
    5.8350   -1.5040   19.6480 N   0  0  0  0  0  0  0  0  0  0  0  0
    6.9320   -1.9230   18.7260 C   0  0  0  0  0  0  0  0  0  0  0  0
    7.2570   -3.4210   18.7060 C   0  0  0  0  0  0  0  0  0  0  0  0
    4.2260   -3.4420   19.1550 C   0  0  0  0  0  0  0  0  0  0  0  0
    2.9680   -3.8670   19.2840 N   0  0  0  0  0  0  0  0  0  0  0  0
    2.8680   -4.9560   18.5270 C   0  0  0  0  0  0  0  0  0  0  0  0
    4.0210   -5.1950   17.9190 C   0  0  0  0  0  0  0  0  0  0  0  0
    4.9030   -4.2910   18.2760 C   0  0  0  0  0  0  0  0  0  0  0  0
    6.2330   -4.1570   17.8520 C   0  0  0  0  0  0  0  0  0  0  0  0
    6.6440   -4.6530   16.5770 C   0  0  0  0  0  0  0  0  0  0  0  0
    5.8280   -5.0760   15.5920 N   0  0  0  0  0  0  0  0  0  0  0  0
    6.5780   -5.4850   14.5490 C   0  0  0  0  0  0  0  0  0  0  0  0
    6.0800   -5.9690   13.3800 N   0  0  0  0  0  0  0  0  0  0  0  0
    7.8860   -5.3230   14.8290 N   0  0  0  0  0  0  0  0  0  0  0  0
    7.9630   -4.7940   16.0580 C   0  0  0  0  0  0  0  0  0  0  0  0
    9.0500   -4.4800   16.5640 O   0  0  0  0  0  0  0  0  0  0  0  0
  2  1  2  0
  3  2  1  0
  6  2  1  0
  4  3  1  0
  5  4  1  0
 11  5  1  0
  7  6  1  0
 10  6  2  0
  8  7  1  0
  9  8  2  0
 10  9  1  0
 11 10  1  0
 12 11  2  0
 13 12  1  0
 17 12  1  0
 14 13  2  0
 15 14  1  0
 16 14  1  0
 17 16  1  0
 18 17  2  0
A    1
O1
A    2
C5
A    3
N2
A    4
C6
A    5
C7
A    6
C4
A    7
N1
A    8
C1
A    9
C2
A   10
C3
A   11
C8
A   12
C9
A   13
N4
A   14
C11
A   15
N5
A   16
N3
A   17
C10
A   18
O2
M  END
>  <Id>  (40) 
2C3J_DBQ_A_1271

>  <ChainId>  (40) 
A

>  <AsymId>  (40) 
B

>  <SeqNum>  (40) 
1271

>  <Name>  (40) 
DEBROMOHYMENIALDISINE

>  <SystematicName>  (40) 
(4Z)-4-(2-amino-5-oxo-1H-imidazol-4-ylidene)-1,5,6,7-tetrahydropyrrolo[2,3-c]azepin-8-one

>  <Synonyms>  (40) 


>  <Type>  (40) 
NON-POLYMER

>  <Formula>  (40) 
C11 H11 N5 O2

>  <ObservedFormula>  (40) 
C11 N5 O2

>  <MolecularWeight>  (40) 
245.237

>  <ModifiedDate>  (40) 
2011-06-04

>  <Parent>  (40) 


>  <OneLetterCode>  (40) 


>  <SubcomponentList>  (40) 


>  <AmbiguousFlag>  (40) 
N

>  <InsertionCode>  (40) 


>  <InstanceId>  (40) 
2C3J_DBQ_A_1271

>  <ChemCompId>  (40) 
DBQ

>  <PdbId>  (40) 
2C3J

>  <ResidueNumber>  (40) 
1271

>  <InChI>  (40) 
InChI=1S/C11H11N5O2/c12-11-15-8(10(18)16-11)6-2-4-14-9(17)7-5(6)1-3-13-7/h1,3,13H,2,4H2,(H,14,17)(H3,12,15,16,18)/b8-6-

>  <InChIKey>  (40) 
JYRJOQGKGMHTOO-VURMDHGXSA-N

>  <SMILES>  (40) 
c1c[nH]c2c1/C(=C\3/C(=O)NC(=N3)N)/CCNC2=O

>  <MissingHeavyAtoms>  (40) 
0

>  <Model>  (40) 
1

>  <AltIds>  (40) 


>  <pKI>  (40) 
6.18

>  <ChemblID>  (40) 
-

>  <standardized_canonical_smiles>  (40) 
NC1=N/C(=C2/CCNC(=O)c3[nH]ccc32)C(=O)N1

$$$$
